 Groundwater/Surface Water exchange (L3/T)
 for each MODFLOW River Cell
 Positive: River water seeps to the aquifer
 Negative: Groundwater flows from aquifer to river
 
 Day:           1
 Daily GW/SW Exchange for each River Cell
 Layer, Row, Column, Flow Rate
           1           6          73  0.0000000E+00
           1           7          73  0.0000000E+00
           1           8          73  0.0000000E+00
           1           9          63  0.0000000E+00
           1           9          72  0.0000000E+00
           1           9          73  0.0000000E+00
           1          10          62  0.0000000E+00
           1          10          72  0.0000000E+00
           1          11          58  0.0000000E+00
           1          11          62  0.0000000E+00
           1          11          71  0.0000000E+00
           1          11          72  0.0000000E+00
           1          12          57  0.0000000E+00
           1          12          62  0.0000000E+00
           1          12          71  0.0000000E+00
           1          13          57  0.0000000E+00
           1          13          62  0.0000000E+00
           1          13          69  0.0000000E+00
           1          13          70  0.0000000E+00
           1          13          71  0.0000000E+00
           1          14          58  0.0000000E+00
           1          14          62  0.0000000E+00
           1          14          68  0.0000000E+00
           1          14          69  0.0000000E+00
           1          15          55  0.0000000E+00
           1          15          56  0.0000000E+00
           1          15          57  0.0000000E+00
           1          15          58  0.0000000E+00
           1          15          59  0.0000000E+00
           1          15          60  0.0000000E+00
           1          15          63  0.0000000E+00
           1          15          64  0.0000000E+00
           1          15          65  0.0000000E+00
           1          15          66  0.0000000E+00
           1          15          67  0.0000000E+00
           1          15          68  0.0000000E+00
           1          15          69  0.0000000E+00
           1          16          53  0.0000000E+00
           1          16          54  0.0000000E+00
           1          16          55  0.0000000E+00
           1          16          60  0.0000000E+00
           1          16          61  0.0000000E+00
           1          16          63  0.0000000E+00
           1          16          64  0.0000000E+00
           1          16          69  0.0000000E+00
           1          16          70  0.0000000E+00
           1          17          62  0.0000000E+00
           1          17          63  0.0000000E+00
           1          17          70  0.0000000E+00
           1          18          62  0.0000000E+00
           1          19          62  0.0000000E+00
           1          20          62  0.0000000E+00
           1          21          62  0.0000000E+00
           1          22          62  0.0000000E+00
           1          23          62  0.0000000E+00
           1          24          54  0.0000000E+00
           1          24          62  0.0000000E+00
           1          25          46  0.0000000E+00
           1          25          54  0.0000000E+00
           1          25          62  0.0000000E+00
           1          26          46  0.0000000E+00
           1          26          54  0.0000000E+00
           1          26          62  0.0000000E+00
           1          26          63  0.0000000E+00
           1          26          64  0.0000000E+00
           1          27          46  0.0000000E+00
           1          27          54  0.0000000E+00
           1          27          62  0.0000000E+00
           1          27          64  0.0000000E+00
           1          27          65  0.0000000E+00
           1          27          66  0.0000000E+00
           1          27          67  0.0000000E+00
           1          28          46  0.0000000E+00
           1          28          53  0.0000000E+00
           1          28          62  0.0000000E+00
           1          29          38  0.0000000E+00
           1          29          46  0.0000000E+00
           1          29          53  0.0000000E+00
           1          29          61  0.0000000E+00
           1          30          37  0.0000000E+00
           1          30          47  0.0000000E+00
           1          30          53  0.0000000E+00
           1          30          61  0.0000000E+00
           1          31          37  0.0000000E+00
           1          31          47  0.0000000E+00
           1          31          48  0.0000000E+00
           1          31          53  0.0000000E+00
           1          31          60  0.0000000E+00
           1          31          61  0.0000000E+00
           1          32          37  0.0000000E+00
           1          32          48  0.0000000E+00
           1          32          52  0.0000000E+00
           1          32          53  0.0000000E+00
           1          32          59  0.0000000E+00
           1          32          60  0.0000000E+00
           1          33          38  0.0000000E+00
           1          33          39  0.0000000E+00
           1          33          40  0.0000000E+00
           1          33          49  0.0000000E+00
           1          33          52  0.0000000E+00
           1          33          59  0.0000000E+00
           1          34          37  0.0000000E+00
           1          34          38  0.0000000E+00
           1          34          39  0.0000000E+00
           1          34          40  0.0000000E+00
           1          34          41  0.0000000E+00
           1          34          49  0.0000000E+00
           1          34          52  0.0000000E+00
           1          34          58  0.0000000E+00
           1          34          59  0.0000000E+00
           1          35          37  0.0000000E+00
           1          35          49  0.0000000E+00
           1          35          50  0.0000000E+00
           1          35          51  0.0000000E+00
           1          35          52  0.0000000E+00
           1          35          58  0.0000000E+00
           1          36          37  0.0000000E+00
           1          36          49  0.0000000E+00
           1          36          57  0.0000000E+00
           1          36          58  0.0000000E+00
           1          37          36  0.0000000E+00
           1          37          49  0.0000000E+00
           1          37          53  0.0000000E+00
           1          38          53  0.0000000E+00
           1          38          54  0.0000000E+00
           1          37          54  0.0000000E+00
           1          37          55  0.0000000E+00
           1          37          56  0.0000000E+00
           1          37          57  0.0000000E+00
           1          37          58  0.0000000E+00
           1          38          36  0.0000000E+00
           1          38          49  0.0000000E+00
           1          38          50  0.0000000E+00
           1          38          51  0.0000000E+00
           1          38          52  0.0000000E+00
           1          38          59  0.0000000E+00
           1          39          35  0.0000000E+00
           1          39          50  0.0000000E+00
           1          39          51  0.0000000E+00
           1          40          34  0.0000000E+00
           1          40          35  0.0000000E+00
           1          40          49  0.0000000E+00
           1          41          34  0.0000000E+00
           1          41          35  0.0000000E+00
           1          41          49  0.0000000E+00
           1          42          34  0.0000000E+00
           1          42          49  0.0000000E+00
           1          43          35  0.0000000E+00
           1          43          49  0.0000000E+00
           1          44          35  0.0000000E+00
           1          44          49  0.0000000E+00
           1          45          35  0.0000000E+00
           1          45          47  0.0000000E+00
           1          45          49  0.0000000E+00
           1          46          35  0.0000000E+00
           1          46          47  0.0000000E+00
           1          46          49  0.0000000E+00
           1          47          32  0.0000000E+00
           1          47          33  0.0000000E+00
           1          47          34  0.0000000E+00
           1          47          35  0.0000000E+00
           1          47          36  0.0000000E+00
           1          47          40  0.0000000E+00
           1          47          47  0.0000000E+00
           1          47          48  0.0000000E+00
           1          47          49  0.0000000E+00
           1          47          50  0.0000000E+00
           1          48          32  0.0000000E+00
           1          48          36  0.0000000E+00
           1          48          37  0.0000000E+00
           1          48          39  0.0000000E+00
           1          48          40  0.0000000E+00
           1          48          47  0.0000000E+00
           1          48          48  0.0000000E+00
           1          48          49  0.0000000E+00
           1          48          50  0.0000000E+00
           1          48          51  0.0000000E+00
           1          48          52  0.0000000E+00
           1          48          62  0.0000000E+00
           1          48          63  0.0000000E+00
           1          49          37  0.0000000E+00
           1          49          38  0.0000000E+00
           1          49          39  0.0000000E+00
           1          50          47  0.0000000E+00
           1          49          47  0.0000000E+00
           1          49          48  0.0000000E+00
           1          50          48  0.0000000E+00
           1          49          61  0.0000000E+00
           1          49          62  0.0000000E+00
           1          50          38  0.0000000E+00
           1          50          39  0.0000000E+00
           1          50          46  0.0000000E+00
           1          50          59  0.0000000E+00
           1          50          60  0.0000000E+00
           1          51          39  0.0000000E+00
           1          51          46  0.0000000E+00
           1          51          47  0.0000000E+00
           1          51          58  0.0000000E+00
           1          51          59  0.0000000E+00
           1          52          40  0.0000000E+00
           1          52          46  0.0000000E+00
           1          52          47  0.0000000E+00
           1          52          58  0.0000000E+00
           1          53          40  0.0000000E+00
           1          53          46  0.0000000E+00
           1          53          47  0.0000000E+00
           1          53          57  0.0000000E+00
           1          53          58  -456.1949    
           1          54          40  0.0000000E+00
           1          54          41  0.0000000E+00
           1          54          46  0.0000000E+00
           1          54          57  0.0000000E+00
           1          55          41  0.0000000E+00
           1          55          46  0.0000000E+00
           1          55          56  0.0000000E+00
           1          55          57  0.0000000E+00
           1          56          41  0.0000000E+00
           1          56          45  0.0000000E+00
           1          56          56  0.0000000E+00
           1          57          41  0.0000000E+00
           1          57          45  0.0000000E+00
           1          57          46  0.0000000E+00
           1          57          56  0.0000000E+00
           1          58          31  0.0000000E+00
           1          58          41  0.0000000E+00
           1          58          42  0.0000000E+00
           1          58          44  0.0000000E+00
           1          58          45  0.0000000E+00
           1          58          46  0.0000000E+00
           1          58          56  0.0000000E+00
           1          59          31  0.0000000E+00
           1          59          32  0.0000000E+00
           1          59          42  0.0000000E+00
           1          59          43  0.0000000E+00
           1          59          44  0.0000000E+00
           1          59          45  0.0000000E+00
           1          59          56  0.0000000E+00
           1          60          32  0.0000000E+00
           1          60          42  0.0000000E+00
           1          60          43  0.0000000E+00
           1          60          57  0.0000000E+00
           1          61          32  0.0000000E+00
           1          61          42  0.0000000E+00
           1          61          57  0.0000000E+00
           1          62          32  0.0000000E+00
           1          62          33  0.0000000E+00
           1          62          41  0.0000000E+00
           1          62          42  0.0000000E+00
           1          62          57  0.0000000E+00
           1          63          33  0.0000000E+00
           1          63          41  0.0000000E+00
           1          63          57  0.0000000E+00
           1          64          33  0.0000000E+00
           1          65          33  0.0000000E+00
           1          64          41  0.0000000E+00
           1          64          57  0.0000000E+00
           1          65          56  0.0000000E+00
           1          65          57  0.0000000E+00
           1          66          28  0.0000000E+00
           1          66          34  0.0000000E+00
           1          66          40  0.0000000E+00
           1          66          55  0.0000000E+00
           1          66          56  0.0000000E+00
           1          67          28  0.0000000E+00
           1          67          35  0.0000000E+00
           1          67          40  0.0000000E+00
           1          67          53  0.0000000E+00
           1          67          54  0.0000000E+00
           1          67          55  0.0000000E+00
           1          68          28  0.0000000E+00
           1          68          36  0.0000000E+00
           1          68          40  0.0000000E+00
           1          68          51  0.0000000E+00
           1          68          52  0.0000000E+00
           1          68          53  0.0000000E+00
           1          69          28  0.0000000E+00
           1          69          29  0.0000000E+00
           1          69          36  0.0000000E+00
           1          69          39  0.0000000E+00
           1          69          40  0.0000000E+00
           1          69          47  0.0000000E+00
           1          69          48  0.0000000E+00
           1          69          49  0.0000000E+00
           1          69          50  0.0000000E+00
           1          69          51  0.0000000E+00
           1          70          29  0.0000000E+00
           1          70          30  0.0000000E+00
           1          71          30  0.0000000E+00
           1          70          36  0.0000000E+00
           1          70          38  0.0000000E+00
           1          70          39  0.0000000E+00
           1          70          46  0.0000000E+00
           1          70          47  0.0000000E+00
           1          71          31  0.0000000E+00
           1          71          32  0.0000000E+00
           1          71          37  0.0000000E+00
           1          71          38  0.0000000E+00
           1          71          45  0.0000000E+00
           1          71          46  0.0000000E+00
           1          72          30  0.0000000E+00
           1          72          31  0.0000000E+00
           1          72          32  0.0000000E+00
           1          72          37  0.0000000E+00
           1          72          44  0.0000000E+00
           1          72          45  0.0000000E+00
           1          73          31  0.0000000E+00
           1          73          32  0.0000000E+00
           1          73          36  0.0000000E+00
           1          73          37  0.0000000E+00
           1          73          44  0.0000000E+00
           1          74          32  0.0000000E+00
           1          74          33  0.0000000E+00
           1          74          34  0.0000000E+00
           1          74          35  0.0000000E+00
           1          74          36  0.0000000E+00
           1          74          44  0.0000000E+00
           1          75          36  0.0000000E+00
           1          75          44  0.0000000E+00
           1          76          37  0.0000000E+00
           1          76          45  0.0000000E+00
           1          77          37  0.0000000E+00
           1          77          45  0.0000000E+00
           1          77          46  0.0000000E+00
           1          78          37  0.0000000E+00
           1          78          46  0.0000000E+00
           1          79          33  0.0000000E+00
           1          80          34  0.0000000E+00
           1          79          34  0.0000000E+00
           1          79          37  0.0000000E+00
           1          79          46  0.0000000E+00
           1          80          47  0.0000000E+00
           1          80          35  0.0000000E+00
           1          80          37  0.0000000E+00
           1          80          38  0.0000000E+00
           1          81          36  0.0000000E+00
           1          81          38  0.0000000E+00
           1          81          47  0.0000000E+00
           1          82          35  0.0000000E+00
           1          82          37  0.0000000E+00
           1          82          38  0.0000000E+00
           1          82          47  0.0000000E+00
           1          83          47  0.0000000E+00
           1          83          35  0.0000000E+00
           1          83          36  0.0000000E+00
           1          83          37  0.0000000E+00
           1          84          35  0.0000000E+00
           1          84          47  0.0000000E+00
           1          85          35  0.0000000E+00
           1          85          46  0.0000000E+00
           1          85          47  0.0000000E+00
           1          86          35  0.0000000E+00
           1          86          46  0.0000000E+00
           1          87          34  0.0000000E+00
           1          87          35  0.0000000E+00
           1          87          45  0.0000000E+00
           1          87          46  0.0000000E+00
           1          87          49  0.0000000E+00
           1          88          33  0.0000000E+00
           1          88          34  0.0000000E+00
           1          88          45  0.0000000E+00
           1          88          47  0.0000000E+00
           1          89          47  0.0000000E+00
           1          88          48  0.0000000E+00
           1          88          49  0.0000000E+00
           1          89          33  0.0000000E+00
           1          89          42  0.0000000E+00
           1          89          44  0.0000000E+00
           1          89          45  0.0000000E+00
           1          89          46  0.0000000E+00
           1          90          33  0.0000000E+00
           1          90          38  0.0000000E+00
           1          90          39  0.0000000E+00
           1          90          40  0.0000000E+00
           1          90          41  0.0000000E+00
           1          90          42  0.0000000E+00
           1          90          43  0.0000000E+00
           1          90          44  0.0000000E+00
           1          90          45  0.0000000E+00
           1          90          46  0.0000000E+00
           1          91          33  0.0000000E+00
           1          91          37  0.0000000E+00
           1          91          38  0.0000000E+00
           1          91          41  0.0000000E+00
           1          91          42  0.0000000E+00
           1          91          43  0.0000000E+00
           1          91          44  0.0000000E+00
           1          92          33  0.0000000E+00
           1          92          37  0.0000000E+00
           1          93          33  0.0000000E+00
           1          93          34  0.0000000E+00
           1          93          36  0.0000000E+00
           1          93          37  0.0000000E+00
           1          94          34  0.0000000E+00
           1          94          36  0.0000000E+00
           1          95          34  0.0000000E+00
           1          95          36  0.0000000E+00
           1          96          34  0.0000000E+00
           1          96          35  0.0000000E+00
           1          96          36  0.0000000E+00
           1          97          34  0.0000000E+00
           1          98          34  0.0000000E+00
           1          97          35  0.0000000E+00
           1          98          33  0.0000000E+00
           1          99          34  0.0000000E+00
           1         100          34  0.0000000E+00
           1         101          30  0.0000000E+00
           1         101          33  0.0000000E+00
           1         102          29  0.0000000E+00
           1         102          33  0.0000000E+00
           1         103          29  0.0000000E+00
           1         103          33  0.0000000E+00
           1         103          36  0.0000000E+00
           1         104          29  0.0000000E+00
           1         104          34  0.0000000E+00
           1         104          35  0.0000000E+00
           1         105          30  0.0000000E+00
           1         105          34  0.0000000E+00
           1         106          28  0.0000000E+00
           1         107          28  0.0000000E+00
           1         106          30  0.0000000E+00
           1         106          33  0.0000000E+00
           1         107          29  0.0000000E+00
           1         107          30  0.0000000E+00
           1         107          33  0.0000000E+00
           1         108          29  0.0000000E+00
           1         108          30  0.0000000E+00
           1         108          32  0.0000000E+00
           1         108          33  0.0000000E+00
           1         109          29  0.0000000E+00
           1         109          30  0.0000000E+00
           1         109          32  0.0000000E+00
           1         110          30  0.0000000E+00
           1         110          32  0.0000000E+00
           1         110          34  0.0000000E+00
           1         110          35  0.0000000E+00
           1         110          36  0.0000000E+00
           1         111          29  0.0000000E+00
           1         111          30  0.0000000E+00
           1         111          32  0.0000000E+00
           1         111          33  0.0000000E+00
           1         111          34  0.0000000E+00
           1         112          29  0.0000000E+00
           1         112          31  0.0000000E+00
           1         112          32  0.0000000E+00
           1         112          33  0.0000000E+00
           1         113          25  0.0000000E+00
           1         113          28  0.0000000E+00
           1         113          29  0.0000000E+00
           1         114          25  0.0000000E+00
           1         114          27  0.0000000E+00
           1         114          28  0.0000000E+00
           1         115          25  0.0000000E+00
           1         115          26  0.0000000E+00
           1         115          27  0.0000000E+00
           1         115          28  0.0000000E+00
           1         116          24  0.0000000E+00
           1         116          25  0.0000000E+00
           1         116          26  0.0000000E+00
           1         117          23  0.0000000E+00
           1         117          24  0.0000000E+00
           1         117          25  0.0000000E+00
           1         118          22  0.0000000E+00
           1         118          23  0.0000000E+00
           1         118          25  0.0000000E+00
           1         118          26  0.0000000E+00
           1         118          27  0.0000000E+00
           1         118          28  0.0000000E+00
           1         118          29  0.0000000E+00
           1         119          19  0.0000000E+00
           1         119          21  0.0000000E+00
           1         119          22  0.0000000E+00
           1         120          19  0.0000000E+00
           1         120          21  0.0000000E+00
           1         121          19  0.0000000E+00
           1         121          20  0.0000000E+00
           1         121          21  0.0000000E+00
           1         122          18  0.0000000E+00
           1         122          19  0.0000000E+00
           1         122          20  0.0000000E+00
           1         123          16  0.0000000E+00
           1         123          17  0.0000000E+00
           1         123          18  0.0000000E+00
           1         124          14  0.0000000E+00
           1         124          15  0.0000000E+00
           1         124          16  0.0000000E+00
           1         125          11  0.0000000E+00
           1         125          12  0.0000000E+00
           1         125          13  0.0000000E+00
           1         126           9  0.0000000E+00
           1         126          10  0.0000000E+00
           1         126          11  0.0000000E+00
           1         127           7  0.0000000E+00
           1         127           8  0.0000000E+00
           1         127           9  0.0000000E+00
           1         128           6  0.0000000E+00
           1         128           7  0.0000000E+00
           1         129           4  0.0000000E+00
           1         129           5  0.0000000E+00
           1         129           6  0.0000000E+00
           1         130           2  0.0000000E+00
           1         130           3  0.0000000E+00
           1         130           4  0.0000000E+00
           1         131           1  0.0000000E+00
           1         131           2  0.0000000E+00
 
 Day:         100
 Daily GW/SW Exchange for each River Cell
 Layer, Row, Column, Flow Rate
           1           6          73  0.0000000E+00
           1           7          73  0.0000000E+00
           1           8          73  0.0000000E+00
           1           9          63  0.0000000E+00
           1           9          72  0.0000000E+00
           1           9          73  0.0000000E+00
           1          10          62  0.0000000E+00
           1          10          72  0.0000000E+00
           1          11          58  0.0000000E+00
           1          11          62  0.0000000E+00
           1          11          71  0.0000000E+00
           1          11          72  0.0000000E+00
           1          12          57  0.0000000E+00
           1          12          62  0.0000000E+00
           1          12          71  0.0000000E+00
           1          13          57  0.0000000E+00
           1          13          62  0.0000000E+00
           1          13          69  0.0000000E+00
           1          13          70  0.0000000E+00
           1          13          71  0.0000000E+00
           1          14          58  0.0000000E+00
           1          14          62  0.0000000E+00
           1          14          68  0.0000000E+00
           1          14          69  0.0000000E+00
           1          15          55  0.0000000E+00
           1          15          56  0.0000000E+00
           1          15          57  0.0000000E+00
           1          15          58  0.0000000E+00
           1          15          59  0.0000000E+00
           1          15          60  0.0000000E+00
           1          15          63  0.0000000E+00
           1          15          64  0.0000000E+00
           1          15          65  0.0000000E+00
           1          15          66  0.0000000E+00
           1          15          67  0.0000000E+00
           1          15          68  0.0000000E+00
           1          15          69  0.0000000E+00
           1          16          53  0.0000000E+00
           1          16          54  0.0000000E+00
           1          16          55  0.0000000E+00
           1          16          60  0.0000000E+00
           1          16          61  0.0000000E+00
           1          16          63  0.0000000E+00
           1          16          64  0.0000000E+00
           1          16          69  0.0000000E+00
           1          16          70  0.0000000E+00
           1          17          62  0.0000000E+00
           1          17          63  0.0000000E+00
           1          17          70  0.0000000E+00
           1          18          62  0.0000000E+00
           1          19          62  0.0000000E+00
           1          20          62  0.0000000E+00
           1          21          62  0.0000000E+00
           1          22          62  0.0000000E+00
           1          23          62  0.0000000E+00
           1          24          54  0.0000000E+00
           1          24          62  0.0000000E+00
           1          25          46  0.0000000E+00
           1          25          54  0.0000000E+00
           1          25          62  0.0000000E+00
           1          26          46  0.0000000E+00
           1          26          54  0.0000000E+00
           1          26          62  0.0000000E+00
           1          26          63  0.0000000E+00
           1          26          64  0.0000000E+00
           1          27          46  0.0000000E+00
           1          27          54  0.0000000E+00
           1          27          62  0.0000000E+00
           1          27          64  0.0000000E+00
           1          27          65  0.0000000E+00
           1          27          66  0.0000000E+00
           1          27          67  0.0000000E+00
           1          28          46  0.0000000E+00
           1          28          53  0.0000000E+00
           1          28          62  0.0000000E+00
           1          29          38  0.0000000E+00
           1          29          46  0.0000000E+00
           1          29          53  0.0000000E+00
           1          29          61  0.0000000E+00
           1          30          37  0.0000000E+00
           1          30          47  0.0000000E+00
           1          30          53  0.0000000E+00
           1          30          61  0.0000000E+00
           1          31          37  0.0000000E+00
           1          31          47  0.0000000E+00
           1          31          48  0.0000000E+00
           1          31          53  0.0000000E+00
           1          31          60  0.0000000E+00
           1          31          61  0.0000000E+00
           1          32          37  0.0000000E+00
           1          32          48  0.0000000E+00
           1          32          52  0.0000000E+00
           1          32          53  0.0000000E+00
           1          32          59  0.0000000E+00
           1          32          60  0.0000000E+00
           1          33          38  0.0000000E+00
           1          33          39  0.0000000E+00
           1          33          40  0.0000000E+00
           1          33          49  0.0000000E+00
           1          33          52  0.0000000E+00
           1          33          59  0.0000000E+00
           1          34          37   9.604639    
           1          34          38  0.0000000E+00
           1          34          39  0.0000000E+00
           1          34          40  0.0000000E+00
           1          34          41  0.0000000E+00
           1          34          49  0.0000000E+00
           1          34          52  0.0000000E+00
           1          34          58  0.0000000E+00
           1          34          59  0.0000000E+00
           1          35          37   29.82914    
           1          35          49   65.50890    
           1          35          50  0.0000000E+00
           1          35          51  0.0000000E+00
           1          35          52  0.0000000E+00
           1          35          58  0.0000000E+00
           1          36          37   33.34367    
           1          36          49   128.1073    
           1          36          57   522.1634    
           1          36          58  0.0000000E+00
           1          37          36   30.17250    
           1          37          49   124.3849    
           1          37          53   2044.747    
           1          38          53   679.3623    
           1          38          54   265.1277    
           1          37          54   2602.913    
           1          37          55   2614.294    
           1          37          56   2792.746    
           1          37          57   534.1793    
           1          37          58  0.0000000E+00
           1          38          36   36.41883    
           1          38          49   41.60916    
           1          38          50   123.4757    
           1          38          51   2308.908    
           1          38          52   2735.479    
           1          38          59  0.0000000E+00
           1          39          35   31.00719    
           1          39          50   2096.060    
           1          39          51   511.3025    
           1          40          34   13.79977    
           1          40          35   35.52758    
           1          40          49   724.5942    
           1          41          34   14.08547    
           1          41          35   20.13016    
           1          41          49   181.7922    
           1          42          34   25.65078    
           1          42          49   911.3353    
           1          43          35   32.30976    
           1          43          49   776.3342    
           1          44          35   29.91172    
           1          44          49   831.2598    
           1          45          35   30.56562    
           1          45          47  0.0000000E+00
           1          45          49  -2557.106    
           1          46          35   32.99031    
           1          46          47  0.0000000E+00
           1          46          49  -2377.726    
           1          47          32  0.0000000E+00
           1          47          33  0.0000000E+00
           1          47          34  0.0000000E+00
           1          47          35   10.57684    
           1          47          36   818.1105    
           1          47          40  0.0000000E+00
           1          47          47  0.0000000E+00
           1          47          48   336.8624    
           1          47          49  0.0000000E+00
           1          47          50  0.0000000E+00
           1          48          32  0.0000000E+00
           1          48          36   69.93465    
           1          48          37   904.2481    
           1          48          39  0.0000000E+00
           1          48          40  0.0000000E+00
           1          48          47  0.0000000E+00
           1          48          48   454.5819    
           1          48          49  0.0000000E+00
           1          48          50  -103.3987    
           1          48          51  -409.5837    
           1          48          52  -533.6074    
           1          48          62  0.0000000E+00
           1          48          63  0.0000000E+00
           1          49          37   735.2072    
           1          49          38   533.3381    
           1          49          39  0.0000000E+00
           1          50          47   473.7119    
           1          49          47  0.0000000E+00
           1          49          48   548.5004    
           1          50          48   18.19526    
           1          49          61  0.0000000E+00
           1          49          62  0.0000000E+00
           1          50          38   650.2247    
           1          50          39   135.6807    
           1          50          46  0.0000000E+00
           1          50          59  -999.5175    
           1          50          60  0.0000000E+00
           1          51          39   146.6850    
           1          51          46   13.55029    
           1          51          47   662.5198    
           1          51          58  0.0000000E+00
           1          51          59  -1759.057    
           1          52          40   229.1749    
           1          52          46   39.67757    
           1          52          47   538.2737    
           1          52          58  -1689.250    
           1          53          40   194.5156    
           1          53          46   115.1287    
           1          53          47   584.8923    
           1          53          57  -1066.044    
           1          53          58  -1294.607    
           1          54          40   34.06911    
           1          54          41   159.1917    
           1          54          46   481.2697    
           1          54          57  -1366.567    
           1          55          41   166.8518    
           1          55          46   416.2937    
           1          55          56  -1204.309    
           1          55          57  -1014.243    
           1          56          41   160.2194    
           1          56          45   326.7150    
           1          56          56  -1352.102    
           1          57          41   117.2094    
           1          57          45   452.3148    
           1          57          46  0.0000000E+00
           1          57          56  -1216.939    
           1          58          31  0.0000000E+00
           1          58          41   6.193859    
           1          58          42   63.75354    
           1          58          44   403.0086    
           1          58          45   109.3334    
           1          58          46  0.0000000E+00
           1          58          56  0.0000000E+00
           1          59          31  0.0000000E+00
           1          59          32  0.0000000E+00
           1          59          42   11.47718    
           1          59          43   1267.347    
           1          59          44   537.9054    
           1          59          45  0.0000000E+00
           1          59          56  0.0000000E+00
           1          60          32  0.0000000E+00
           1          60          42   23.77829    
           1          60          43   1576.308    
           1          60          57  0.0000000E+00
           1          61          32  0.0000000E+00
           1          61          42   1429.611    
           1          61          57  0.0000000E+00
           1          62          32  0.0000000E+00
           1          62          33  0.0000000E+00
           1          62          41   182.3015    
           1          62          42   1220.941    
           1          62          57  0.0000000E+00
           1          63          33  0.0000000E+00
           1          63          41   1418.074    
           1          63          57  0.0000000E+00
           1          64          33  0.0000000E+00
           1          65          33  0.0000000E+00
           1          64          41   1195.208    
           1          64          57  0.0000000E+00
           1          65          56  0.0000000E+00
           1          65          57  0.0000000E+00
           1          66          28  0.0000000E+00
           1          66          34  0.0000000E+00
           1          66          40   1027.639    
           1          66          55  0.0000000E+00
           1          66          56  0.0000000E+00
           1          67          28  0.0000000E+00
           1          67          35  0.0000000E+00
           1          67          40   1120.916    
           1          67          53  0.0000000E+00
           1          67          54  0.0000000E+00
           1          67          55  0.0000000E+00
           1          68          28  0.0000000E+00
           1          68          36  0.0000000E+00
           1          68          40   1120.916    
           1          68          51  0.0000000E+00
           1          68          52  0.0000000E+00
           1          68          53  0.0000000E+00
           1          69          28  0.0000000E+00
           1          69          29  0.0000000E+00
           1          69          36  0.0000000E+00
           1          69          39   71.42208    
           1          69          40   1476.749    
           1          69          47  0.0000000E+00
           1          69          48  0.0000000E+00
           1          69          49  0.0000000E+00
           1          69          50  0.0000000E+00
           1          69          51  0.0000000E+00
           1          70          29  0.0000000E+00
           1          70          30  0.0000000E+00
           1          71          30  0.0000000E+00
           1          70          36  0.0000000E+00
           1          70          38   309.4959    
           1          70          39   1444.237    
           1          70          46  0.0000000E+00
           1          70          47  0.0000000E+00
           1          71          31  0.0000000E+00
           1          71          32  0.0000000E+00
           1          71          37   100.6775    
           1          71          38  -853.6002    
           1          71          45  0.0000000E+00
           1          71          46  0.0000000E+00
           1          72          30  0.0000000E+00
           1          72          31  0.0000000E+00
           1          72          32   33.65340    
           1          72          37   717.8250    
           1          72          44  0.0000000E+00
           1          72          45  0.0000000E+00
           1          73          31  0.0000000E+00
           1          73          32   510.3706    
           1          73          36   771.6645    
           1          73          37  -139.3753    
           1          73          44  0.0000000E+00
           1          74          32   83.66936    
           1          74          33   430.4132    
           1          74          34   426.1670    
           1          74          35   407.0471    
           1          74          36  -1077.215    
           1          74          44  0.0000000E+00
           1          75          36   1471.892    
           1          75          44  0.0000000E+00
           1          76          37   1610.749    
           1          76          45  0.0000000E+00
           1          77          37   1822.011    
           1          77          45  0.0000000E+00
           1          77          46  0.0000000E+00
           1          78          37   1554.757    
           1          78          46   590.9651    
           1          79          33  0.0000000E+00
           1          80          34  0.0000000E+00
           1          79          34  0.0000000E+00
           1          79          37   2042.942    
           1          79          46   634.0277    
           1          80          47   841.4727    
           1          80          35  0.0000000E+00
           1          80          37   237.6860    
           1          80          38   387.2067    
           1          81          36  0.0000000E+00
           1          81          38   454.5693    
           1          81          47   796.8273    
           1          82          35  0.0000000E+00
           1          82          37   245.5835    
           1          82          38   696.2577    
           1          82          47   1041.567    
           1          83          47   1009.182    
           1          83          35   285.8134    
           1          83          36   408.0674    
           1          83          37   184.4683    
           1          84          35   2891.330    
           1          84          47   926.4303    
           1          85          35   2901.023    
           1          85          46   476.6727    
           1          85          47   389.3581    
           1          86          35   3038.916    
           1          86          46   1013.543    
           1          87          34   2045.279    
           1          87          35   2040.714    
           1          87          45   188.1471    
           1          87          46   702.3205    
           1          87          49  0.0000000E+00
           1          88          33   638.9471    
           1          88          34   3507.464    
           1          88          45   1046.628    
           1          88          47  0.0000000E+00
           1          89          47  0.0000000E+00
           1          88          48  0.0000000E+00
           1          88          49  0.0000000E+00
           1          89          33   559.1482    
           1          89          42  0.0000000E+00
           1          89          44   610.9354    
           1          89          45   665.1689    
           1          89          46  0.0000000E+00
           1          90          33   2161.318    
           1          90          38   64.03690    
           1          90          39   334.0841    
           1          90          40   482.2920    
           1          90          41   292.2102    
           1          90          42   79.27514    
           1          90          43   992.7408    
           1          90          44   191.8348    
           1          90          45  0.0000000E+00
           1          90          46  0.0000000E+00
           1          91          33   1419.151    
           1          91          37   151.5769    
           1          91          38   414.1981    
           1          91          41   11.04796    
           1          91          42   340.6366    
           1          91          43  0.0000000E+00
           1          91          44  0.0000000E+00
           1          92          33   1496.312    
           1          92          37   396.0043    
           1          93          33   704.5192    
           1          93          34   1117.862    
           1          93          36   330.9293    
           1          93          37   67.27316    
           1          94          34   1452.408    
           1          94          36   350.0356    
           1          95          34   1381.875    
           1          95          36   419.4437    
           1          96          34   1397.839    
           1          96          35   358.2150    
           1          96          36   58.72647    
           1          97          34   1516.748    
           1          98          34   1608.633    
           1          97          35   412.8835    
           1          98          33   565.9911    
           1          99          34   2508.818    
           1         100          34   4327.905    
           1         101          30  0.0000000E+00
           1         101          33   2635.741    
           1         102          29  0.0000000E+00
           1         102          33   1848.150    
           1         103          29  0.0000000E+00
           1         103          33   227.3145    
           1         103          36  0.0000000E+00
           1         104          29  0.0000000E+00
           1         104          34   1447.988    
           1         104          35  0.0000000E+00
           1         105          30  0.0000000E+00
           1         105          34   2512.419    
           1         106          28  0.0000000E+00
           1         107          28  0.0000000E+00
           1         106          30  0.0000000E+00
           1         106          33  -325.6976    
           1         107          29  0.0000000E+00
           1         107          30  0.0000000E+00
           1         107          33  -455.4773    
           1         108          29   6.361426    
           1         108          30   77.43094    
           1         108          32  -112.5269    
           1         108          33  -97.29800    
           1         109          29   2.573303    
           1         109          30   88.27822    
           1         109          32  -322.4129    
           1         110          30   99.22793    
           1         110          32  -238.9427    
           1         110          34  0.0000000E+00
           1         110          35  0.0000000E+00
           1         110          36  0.0000000E+00
           1         111          29   371.1792    
           1         111          30  -80.44519    
           1         111          32  -68.88438    
           1         111          33  0.0000000E+00
           1         111          34  0.0000000E+00
           1         112          29  -191.6287    
           1         112          31  -12.69878    
           1         112          32   656.9044    
           1         112          33  0.0000000E+00
           1         113          25  0.0000000E+00
           1         113          28  -44.36351    
           1         113          29  -100.9560    
           1         114          25  0.0000000E+00
           1         114          27   50.83717    
           1         114          28  -231.8395    
           1         115          25  0.0000000E+00
           1         115          26  -171.1207    
           1         115          27  -140.6216    
           1         115          28   35.64902    
           1         116          24   219.1398    
           1         116          25  -174.1896    
           1         116          26  -24.27045    
           1         117          23   631.1905    
           1         117          24  -165.2109    
           1         117          25  0.0000000E+00
           1         118          22   729.3942    
           1         118          23  -170.2752    
           1         118          25  0.0000000E+00
           1         118          26  0.0000000E+00
           1         118          27  0.0000000E+00
           1         118          28  0.0000000E+00
           1         118          29  0.0000000E+00
           1         119          19  0.0000000E+00
           1         119          21   114.7444    
           1         119          22  -130.9827    
           1         120          19  0.0000000E+00
           1         120          21  -39.48672    
           1         121          19  0.0000000E+00
           1         121          20   12.93829    
           1         121          21  -32.91798    
           1         122          18   366.9836    
           1         122          19   14.77747    
           1         122          20  -28.14688    
           1         123          16   602.6162    
           1         123          17  -2.865503    
           1         123          18  -2.684863    
           1         124          14   7.129944    
           1         124          15  -31.84178    
           1         124          16   17.01309    
           1         125          11  -20.94770    
           1         125          12  0.0000000E+00
           1         125          13   1.999426    
           1         126           9  -15.31130    
           1         126          10  -14.61182    
           1         126          11   887.8248    
           1         127           7  -1.043274    
           1         127           8  -28.08118    
           1         127           9   1048.658    
           1         128           6  -41.09631    
           1         128           7  -44.15343    
           1         129           4  -69.40996    
           1         129           5   62.21876    
           1         129           6   114.4354    
           1         130           2  -274.9983    
           1         130           3  -133.6031    
           1         130           4   162.7250    
           1         131           1   2128.405    
           1         131           2   38.38687    
