 Yearly Total Recharge Values for MODFLOW (m3)
 
 year:        1987
      0.0000      0.0000      0.0000      0.0000      0.0000      0.0000      0.0000      0.0000      0.0000      0.0000      0.0000      0.0000      0.0000      0.0000      0.0000      0.0000      0.0000      0.0000      0.0000      0.0000      0.0000      0.0000      0.0000      0.0000      0.0000      0.0000      0.0000      0.0000      0.0000      0.0000      0.0000      0.0000      0.0000      0.0000      0.0000      0.0000      0.0000      0.0000      0.0000      0.0000      0.0000      0.0000      0.0000      0.0000      0.0000      0.0000      0.0000      0.0000      0.0000      0.0000      0.0000      0.0000      0.0000      0.0000      0.0000      0.0000      0.0000      0.0000      0.0000      0.0000      0.0000      0.0000      0.0000      0.0000      0.0000      0.0000      0.0000      0.0000      0.0000      0.0000   1860.4614   8254.6338   6789.1294     42.6139      0.0000      0.0000
      0.0000      0.0000      0.0000      0.0000      0.0000      0.0000      0.0000      0.0000      0.0000      0.0000      0.0000      0.0000      0.0000      0.0000      0.0000      0.0000      0.0000      0.0000      0.0000      0.0000      0.0000      0.0000      0.0000      0.0000      0.0000      0.0000      0.0000      0.0000      0.0000      0.0000      0.0000      0.0000      0.0000      0.0000      0.0000      0.0000      0.0000      0.0000      0.0000      0.0000      0.0000      0.0000      0.0000      0.0000      0.0000      0.0000      0.0000      0.0000      0.0000      0.0000      0.0000      0.0000      0.0000      0.0000      0.0000      0.0000      0.0000      0.0000      0.0000      0.0000      0.0000      0.0000      0.0000      0.0000      0.0000      0.0000      0.0000      0.0000      0.0000   1720.1481   9497.7129  10393.6396  10393.6396   7171.6118   2321.9407      0.0000
      0.0000      0.0000      0.0000      0.0000      0.0000      0.0000      0.0000      0.0000      0.0000      0.0000      0.0000      0.0000      0.0000      0.0000      0.0000      0.0000      0.0000      0.0000      0.0000      0.0000      0.0000      0.0000      0.0000      0.0000      0.0000      0.0000      0.0000      0.0000      0.0000      0.0000      0.0000      0.0000      0.0000      0.0000      0.0000      0.0000      0.0000      0.0000      0.0000      0.0000      0.0000      0.0000      0.0000      0.0000      0.0000      0.0000      0.0000      0.0000      0.0000      0.0000      0.0000      0.0000      0.0000      0.0000      0.0000      0.0000      0.0000      0.0000      0.0000      0.0000      0.0000      0.0000      0.0000      0.0000      0.0000      0.0000      0.0000      0.0000   6158.2319   9776.2568  10393.6396  10393.6396  10393.6396  10393.6396  10060.0049    626.7366
      0.0000      0.0000      0.0000      0.0000      0.0000      0.0000      0.0000      0.0000      0.0000      0.0000      0.0000      0.0000      0.0000      0.0000      0.0000      0.0000      0.0000      0.0000      0.0000      0.0000      0.0000      0.0000      0.0000      0.0000      0.0000      0.0000      0.0000      0.0000      0.0000      0.0000      0.0000      0.0000      0.0000      0.0000      0.0000      0.0000      0.0000      0.0000      0.0000      0.0000      0.0000      0.0000      0.0000      0.0000      0.0000      0.0000      0.0000      0.0000      0.0000      0.0000      0.0000      0.0000      0.0000      0.0000      0.0000      0.0000      0.0000      0.0000      0.0000      0.0000      0.0000      0.0000      0.0000      0.0000      0.0000    641.5057    820.6567   2783.4172  10393.6396  10393.6396  10393.6396  10393.6396  10393.6396  10393.6396   5657.2603      0.0000
      0.0000      0.0000      0.0000      0.0000      0.0000      0.0000      0.0000      0.0000      0.0000      0.0000      0.0000      0.0000      0.0000      0.0000      0.0000      0.0000      0.0000      0.0000      0.0000      0.0000      0.0000      0.0000      0.0000      0.0000      0.0000      0.0000      0.0000      0.0000      0.0000      0.0000      0.0000      0.0000      0.0000      0.0000      0.0000      0.0000      0.0000      0.0000      0.0000      0.0000      0.0000      0.0000      0.0000      0.0000      0.0000      0.0000      0.0000      0.0000      0.0000      0.0000      0.0000      0.0000      0.0000      0.0000      0.0000      0.0000   1208.0245   1204.7010      0.0000      0.0000      0.0000      0.0000      0.0000    140.8477   1115.3212   3010.8853   2862.4956   7633.2866  10393.6396  10393.6396  10393.6396  10393.6396  10393.6396  10393.6396   5398.4570      0.0000
      0.0000      0.0000      0.0000      0.0000      0.0000      0.0000      0.0000      0.0000      0.0000      0.0000      0.0000      0.0000      0.0000      0.0000      0.0000      0.0000      0.0000      0.0000      0.0000      0.0000      0.0000      0.0000      0.0000      0.0000      0.0000      0.0000      0.0000      0.0000      0.0000      0.0000      0.0000      0.0000      0.0000      0.0000      0.0000      0.0000      0.0000      0.0000      0.0000      0.0000      0.0000      0.0000      0.0000      0.0000      0.0000      0.0000      0.0000      0.0000      0.0000      0.0000      0.0000      0.0000      0.0000      0.0000      0.0000   1890.9653   5375.4590   5295.7007   4496.4414   1106.6632    331.1580   2025.8550   1980.6146   2571.7534   3016.0120   3016.0120   3015.1072   9424.9570  10393.6396  10393.6396  10393.6396  10393.6396  10393.6396  10393.6396   9302.3086      0.0000
      0.0000      0.0000      0.0000      0.0000      0.0000      0.0000      0.0000      0.0000      0.0000      0.0000      0.0000      0.0000      0.0000      0.0000      0.0000      0.0000      0.0000      0.0000      0.0000      0.0000      0.0000      0.0000      0.0000      0.0000      0.0000      0.0000      0.0000      0.0000      0.0000      0.0000      0.0000      0.0000      0.0000      0.0000      0.0000      0.0000      0.0000      0.0000      0.0000      0.0000      0.0000      0.0000      0.0000      0.0000      0.0000      0.0000      0.0000      0.0000      0.0000      0.0000      0.0000      0.0000      0.0000      0.0000    278.0506   5457.4355   5538.8569   5538.8569   5538.8569   5115.1343   3365.0771   3016.0120   3016.0120   3016.0120   3016.0120   3016.0120   5575.3115  10393.6396  10393.6396  10393.6396  10393.6396  10393.6396  10393.6396  10393.6396  10197.1953   1262.8274
      0.0000      0.0000      0.0000      0.0000      0.0000      0.0000      0.0000      0.0000      0.0000      0.0000      0.0000      0.0000      0.0000      0.0000      0.0000      0.0000      0.0000      0.0000      0.0000      0.0000      0.0000      0.0000      0.0000      0.0000      0.0000      0.0000      0.0000      0.0000      0.0000      0.0000      0.0000      0.0000      0.0000      0.0000      0.0000      0.0000      0.0000      0.0000      0.0000      0.0000      0.0000      0.0000      0.0000      0.0000      0.0000      0.0000      0.0000      0.0000      0.0000      0.0000      0.0000      0.0000      0.0000   1359.2354   4734.6138   5538.8569   5538.8569   5538.8569   5538.8569   5538.8569   4162.6465   3016.0120   3016.0120   3016.0120   3016.0120   3016.0120   5575.3115  10393.6396  10393.6396  10393.6396  10393.6396  10393.6396  10393.6396  10393.6396  10387.4043   2974.6597
      0.0000      0.0000      0.0000      0.0000      0.0000      0.0000      0.0000      0.0000      0.0000      0.0000      0.0000      0.0000      0.0000      0.0000      0.0000      0.0000      0.0000      0.0000      0.0000      0.0000      0.0000      0.0000      0.0000      0.0000      0.0000      0.0000      0.0000      0.0000      0.0000      0.0000      0.0000      0.0000      0.0000      0.0000      0.0000      0.0000      0.0000      0.0000      0.0000      0.0000      0.0000      0.0000      0.0000      0.0000      0.0000      0.0000      0.0000      0.0000      0.0000      0.0000      0.0000      0.0000   1890.9653   5408.6914   5538.8569   5538.8569   5538.8569   5538.8569   5538.8569   5318.6133   3382.3291   3016.0120   3016.0120   3016.0120   3016.0120   3016.0120   8284.3789  10393.6396  10393.6396  10393.6396  10393.6396  10393.6396  10393.6396  10393.6396   5217.6074      0.0000
      0.0000      0.0000      0.0000      0.0000      0.0000      0.0000      0.0000      0.0000      0.0000      0.0000      0.0000      0.0000      0.0000      0.0000      0.0000      0.0000      0.0000      0.0000      0.0000      0.0000      0.0000      0.0000      0.0000      0.0000      0.0000      0.0000      0.0000      0.0000      0.0000      0.0000      0.0000      0.0000      0.0000      0.0000      0.0000      0.0000      0.0000      0.0000      0.0000      0.0000      0.0000      0.0000      0.0000      0.0000      0.0000      0.0000      0.0000      0.0000      0.0000      0.0000      0.0000      0.0000   2005.0658   5538.8569   5538.8569   5538.8569   5538.8569   5538.8569   5538.8569   4704.0454   3016.0120   3016.0120   3016.0120   3016.0120   3016.0120   6284.0815  10387.0020  10393.6396  10393.6396  10393.6396  10393.6396  10393.6396  10393.6396   9989.3291    414.7063      0.0000
      0.0000      0.0000      0.0000      0.0000      0.0000      0.0000      0.0000      0.0000      0.0000      0.0000      0.0000      0.0000      0.0000      0.0000      0.0000      0.0000      0.0000      0.0000      0.0000      0.0000      0.0000      0.0000      0.0000      0.0000      0.0000      0.0000      0.0000      0.0000      0.0000      0.0000      0.0000      0.0000      0.0000      0.0000      0.0000      0.0000      0.0000      0.0000      0.0000      0.0000      0.0000      0.0000      0.0000      0.0000      0.0000      0.0000      0.0000      0.0000      0.0000      0.0000      0.0000      0.0000   3580.3164   5538.8569   5538.8569   5538.8569   5538.8569   5538.8569   5538.8569   4151.5430   3016.0120   3016.0120   3016.0120   5576.7969  17072.9863  26228.5918  10824.9912  10393.6396  10393.6396  10393.6396  10393.6396  10393.6396  10393.6396  10320.8799   4641.8032      0.0000
      0.0000      0.0000      0.0000      0.0000      0.0000      0.0000      0.0000      0.0000      0.0000      0.0000      0.0000      0.0000      0.0000      0.0000      0.0000      0.0000      0.0000      0.0000      0.0000      0.0000      0.0000      0.0000      0.0000      0.0000      0.0000      0.0000      0.0000      0.0000      0.0000      0.0000      0.0000      0.0000      0.0000      0.0000      0.0000      0.0000      0.0000      0.0000      0.0000      0.0000      0.0000      0.0000      0.0000      0.0000      0.0000      0.0000      0.0000      0.0000      0.0000      0.0000      0.0000   7788.0410   5472.9419   5538.8569   5538.8569   5538.8569   5538.8569   5538.8569   5351.9141   3225.1550   3016.0120   3016.0120   3016.0120   3339.0400  28730.6875  29066.7422  26656.0566  15009.6328  10393.6396  10393.6396  10393.6396  10393.6396  10393.6396  10393.6396   9810.5547    449.0054
      0.0000      0.0000      0.0000      0.0000      0.0000      0.0000      0.0000      0.0000      0.0000      0.0000      0.0000      0.0000      0.0000      0.0000      0.0000      0.0000      0.0000      0.0000      0.0000      0.0000      0.0000      0.0000      0.0000      0.0000      0.0000      0.0000      0.0000      0.0000      0.0000      0.0000      0.0000      0.0000      0.0000      0.0000      0.0000      0.0000      0.0000      0.0000      0.0000      0.0000      0.0000      0.0000      0.0000      0.0000      0.0000      0.0000      0.0000      0.0000      0.0000  10110.1836  13509.3486  52015.1836  26383.1582   5852.5972  13955.9854   8637.0654   5538.8569   5538.8569   2615.6614   2408.5862   3016.0120   3016.0120   3016.0120  13256.5508  29066.7422  29066.7422  29066.7422  26144.3945  10393.6396  10393.6396  10393.6396  10393.6396  10393.6396  10393.6396  10393.6396   1471.7396
      0.0000      0.0000      0.0000      0.0000      0.0000      0.0000      0.0000      0.0000      0.0000      0.0000      0.0000      0.0000      0.0000      0.0000      0.0000      0.0000      0.0000      0.0000      0.0000      0.0000      0.0000      0.0000      0.0000      0.0000      0.0000      0.0000      0.0000      0.0000      0.0000      0.0000      0.0000      0.0000      0.0000      0.0000      0.0000      0.0000      0.0000      0.0000      0.0000      0.0000      0.0000      0.0000      0.0000      0.0000      0.0000      0.0000      0.0000   3879.2991  31585.4570  54031.9375  54561.1719  54561.1719  54561.1719  42075.1875  54561.1719  49026.5625  24682.0625   5518.8633    150.1030    433.4009   3009.6768   3016.0120   6129.7939  23025.5762  29066.7422  29066.7422  29066.7422  27042.5801  12216.4688  10393.6396  10393.6396  10393.6396  10393.6396  10393.6396   8083.1328      0.0000
      0.0000      0.0000      0.0000      0.0000      0.0000      0.0000      0.0000      0.0000      0.0000      0.0000      0.0000      0.0000      0.0000      0.0000      0.0000      0.0000      0.0000      0.0000      0.0000      0.0000      0.0000      0.0000      0.0000      0.0000      0.0000      0.0000      0.0000      0.0000      0.0000      0.0000      0.0000      0.0000      0.0000      0.0000      0.0000      0.0000      0.0000      0.0000      0.0000      0.0000      0.0000      0.0000      0.0000      0.0000      0.0000      0.0000      0.0000  12718.2119  54561.1719  54561.1719  54561.1719  54561.1719  54561.1719  54561.1719  54561.1719  54561.1719  54561.1719  36874.0430      0.0000      0.0000  17739.3281  34322.0859  46363.2344  29066.7422  29066.7422  29066.7422  29066.7422  28595.1309  13859.8008  12434.7754  11145.3496  10433.9121  10393.6396  10393.6396  10103.6562    121.6056
      0.0000      0.0000      0.0000      0.0000      0.0000      0.0000      0.0000      0.0000      0.0000      0.0000      0.0000      0.0000      0.0000      0.0000      0.0000      0.0000      0.0000      0.0000      0.0000      0.0000      0.0000      0.0000      0.0000      0.0000      0.0000      0.0000      0.0000      0.0000      0.0000      0.0000      0.0000      0.0000      0.0000      0.0000      0.0000      0.0000      0.0000      0.0000      0.0000      0.0000      0.0000      0.0000      0.0000      0.0000      0.0000      0.0000      0.0000  11359.6299  54462.9609  54561.1719  54561.1719  54561.1719  54561.1719  54561.1719  54561.1719  54561.1719  50550.9336  21262.4863      0.0000      0.0000  12141.3867  44230.2461  24995.3516  29066.7422  29066.7422  29066.7422  29066.7422  24106.8398  13025.6592  13025.6592  13025.6592  11783.6172  10393.6396  10393.6396   7637.2466      0.0000
      0.0000      0.0000      0.0000      0.0000      0.0000      0.0000      0.0000      0.0000      0.0000      0.0000      0.0000      0.0000      0.0000      0.0000      0.0000      0.0000      0.0000      0.0000      0.0000      0.0000      0.0000      0.0000      0.0000      0.0000      0.0000      0.0000      0.0000      0.0000      0.0000      0.0000      0.0000      0.0000      0.0000      0.0000      0.0000      0.0000      0.0000      0.0000      0.0000      0.0000      0.0000      0.0000      0.0000      0.0000      0.0000      0.0000   1724.1327  34106.1797  54561.1719  54561.1719  54561.1719  54561.1719  54561.1719  54561.1719  54561.1719  49203.2695  10453.9180      0.0000      0.0000      0.0000  60377.0859  62065.6211  22297.5664  29066.7422  29066.7422  29066.7422  29066.7422  25667.6230  13043.3076  13025.6592  13025.6592  12380.5557  10393.6396  10295.9395   4167.8501      0.0000
      0.0000      0.0000      0.0000      0.0000      0.0000      0.0000      0.0000      0.0000      0.0000      0.0000      0.0000      0.0000      0.0000      0.0000      0.0000      0.0000      0.0000      0.0000      0.0000      0.0000      0.0000      0.0000      0.0000      0.0000      0.0000      0.0000      0.0000      0.0000      0.0000      0.0000      0.0000      0.0000      0.0000      0.0000      0.0000      0.0000      0.0000      0.0000      0.0000      0.0000      0.0000      0.0000      0.0000    382.4403  27828.1562  21799.0996  36957.6055  54561.1719  54561.1719  54561.1719  54561.1719  54561.1719  54561.1719  54561.1719  53431.7617  12188.9658      0.0000      0.0000  18430.6562  93699.7266 143170.9688 145969.0312 122619.4375  60437.4102  29066.7422  29066.7422  29066.7422  27291.0059  13330.4385  13025.6592  13025.6592  12297.6455  10393.6396   5705.0679      0.0000      0.0000
      0.0000      0.0000      0.0000      0.0000      0.0000      0.0000      0.0000      0.0000      0.0000      0.0000      0.0000      0.0000      0.0000      0.0000      0.0000      0.0000      0.0000      0.0000      0.0000      0.0000      0.0000      0.0000      0.0000      0.0000      0.0000      0.0000      0.0000      0.0000      0.0000      0.0000      0.0000      0.0000      0.0000      0.0000      0.0000      0.0000      0.0000      0.0000      0.0000      0.0000      0.0000      0.0000      0.0000  24288.7012  74988.3203  74988.3203  66390.4531  54869.6289  54561.1719  54561.1719  58682.3906  67653.4062  63602.3984  67293.4609   9374.6484      0.0000      0.0000      0.0000 151158.1875 191387.8594 191387.8594 191387.8594 191387.8594 190413.9219 175512.8906  57716.4180  29066.7422  17066.4062  13025.6592  13025.6592  13025.6592  10163.2061   1434.3224     90.4247      0.0000      0.0000
      0.0000      0.0000      0.0000      0.0000      0.0000      0.0000      0.0000      0.0000      0.0000      0.0000      0.0000      0.0000      0.0000      0.0000      0.0000      0.0000      0.0000      0.0000      0.0000      0.0000      0.0000      0.0000      0.0000      0.0000      0.0000      0.0000      0.0000      0.0000      0.0000      0.0000      0.0000      0.0000      0.0000      0.0000      0.0000      0.0000      0.0000      0.0000      0.0000      0.0000      0.0000      0.0000      0.0000   3726.9182  74403.3594  74988.3203  74988.3203  60832.2695  54561.1719  56593.2617  92990.7812  98450.6172  97116.3516  97678.1875  68423.1953  22279.3711      0.0000  35406.7461 161397.2969 191387.8594 191387.8594 191387.8594 191387.8594 191387.8594 191387.8594 147563.9844  21272.3770  13210.1396  13025.6592  13025.6592  13025.6592   1474.5048      0.0000      0.0000      0.0000      0.0000
      0.0000      0.0000      0.0000      0.0000      0.0000      0.0000      0.0000      0.0000      0.0000      0.0000      0.0000      0.0000      0.0000      0.0000      0.0000      0.0000      0.0000      0.0000      0.0000      0.0000      0.0000      0.0000      0.0000      0.0000      0.0000      0.0000      0.0000      0.0000      0.0000      0.0000      0.0000      0.0000      0.0000      0.0000      0.0000      0.0000      0.0000      0.0000      0.0000      0.0000      0.0000      0.0000      0.0000  35784.4062  74988.3203  74988.3203  74988.3203  68903.0234  58155.7305  85143.3672  98450.6172  98450.6172  98450.6172  98450.6172  98450.6172  97840.2188  75672.2109 187399.9375 191387.8594 191387.8594 191387.8594 191387.8594 191387.8594 191387.8594 191387.8594 181863.3906  33412.4688  13025.6592  13025.6592  13025.6592  11962.7715    251.3953      0.0000      0.0000      0.0000      0.0000
      0.0000      0.0000      0.0000      0.0000      0.0000      0.0000      0.0000      0.0000      0.0000      0.0000      0.0000      0.0000      0.0000      0.0000      0.0000      0.0000      0.0000      0.0000      0.0000      0.0000      0.0000      0.0000      0.0000      0.0000      0.0000      0.0000      0.0000      0.0000      0.0000      0.0000      0.0000      0.0000      0.0000      0.0000      0.0000      0.0000      0.0000      0.0000      0.0000      0.0000      0.0000      0.0000  25091.0762  74943.2812  74988.3203  74988.3203  74988.3203  74969.8984  83006.9141  98150.3281  98450.6172  98450.6172  98450.6172  98450.6172  98450.6172  98450.6172  98450.6172 150904.4219 191387.8594 191387.8594 191387.8594 191387.8594 191387.8594 191387.8594 191387.8594 191387.8594  72313.2734  13025.6592  13025.6592  13025.6592   7329.5415      0.0000      0.0000      0.0000      0.0000      0.0000
      0.0000      0.0000      0.0000      0.0000      0.0000      0.0000      0.0000      0.0000      0.0000      0.0000      0.0000      0.0000      0.0000      0.0000      0.0000      0.0000      0.0000      0.0000      0.0000      0.0000      0.0000      0.0000      0.0000      0.0000      0.0000      0.0000      0.0000      0.0000      0.0000      0.0000      0.0000      0.0000      0.0000      0.0000      0.0000      0.0000      0.0000      0.0000      0.0000      0.0000      0.0000      0.0000  35124.5078  74988.3203  74988.3203  74988.3203  74988.3203  74988.3203  74965.8281  95855.6719  98450.6172  98450.6172  98450.6172  98450.6172  98450.6172  98450.6172  98450.6172 165486.3125 191387.8594 191387.8594 191387.8594 191387.8594 191387.8594 191387.8594 191387.8594 191387.8594 166409.3594  23382.9707  13186.5312  13184.5527   7568.0132      0.0000      0.0000      0.0000      0.0000      0.0000
      0.0000      0.0000      0.0000      0.0000      0.0000      0.0000      0.0000      0.0000      0.0000      0.0000      0.0000      0.0000      0.0000      0.0000      0.0000      0.0000      0.0000      0.0000      0.0000      0.0000      0.0000      0.0000      0.0000      0.0000      0.0000      0.0000      0.0000      0.0000      0.0000      0.0000      0.0000      0.0000      0.0000      0.0000      0.0000      0.0000      0.0000      0.0000     33.1689   3177.5796   3845.3774   2576.1162  41386.8906  74988.3203  74988.3203  74988.3203  74988.3203  74988.3203  74988.3203  93300.6328  98450.6172  98450.6172  98450.6172  98450.6172  98450.6172  98450.6172  98450.6172 121852.2969 191387.8594 191387.8594 191387.8594 191387.8594 191387.8594 191387.8594 191387.8594 178834.6094 144915.2969  33925.9023  31436.5723  25486.2676  22264.0938      0.0000      0.0000      0.0000      0.0000      0.0000
      0.0000      0.0000      0.0000      0.0000      0.0000      0.0000      0.0000      0.0000      0.0000      0.0000      0.0000      0.0000      0.0000      0.0000      0.0000      0.0000      0.0000      0.0000      0.0000      0.0000      0.0000      0.0000      0.0000      0.0000      0.0000      0.0000      0.0000      0.0000      0.0000      0.0000      0.0000      0.0000      0.0000      0.0000   1111.5262   5654.9258   3094.2874   5531.0952   6913.1333   7370.8623   7370.8623  21367.6621  74379.7344  74988.3203  74988.3203  74988.3203  74988.3203  74988.3203  75990.1250  94213.3047  98450.6172  98450.6172  98450.6172  98450.6172  98450.6172  98450.6172  98450.6172 132642.2344 191387.8594 191387.8594 191387.8594 191387.8594  99330.1875  66789.8516 115434.0156  37546.3477  32886.3906  32886.3906  32886.3906  32886.3906  25509.9707      0.0000      0.0000      0.0000      0.0000      0.0000
      0.0000      0.0000      0.0000      0.0000      0.0000      0.0000      0.0000      0.0000      0.0000      0.0000      0.0000      0.0000      0.0000      0.0000      0.0000      0.0000      0.0000      0.0000      0.0000      0.0000      0.0000      0.0000      0.0000      0.0000      0.0000      0.0000      0.0000      0.0000      0.0000      0.0000      0.0000      0.0000      0.0000      0.0000   4934.7896   7370.8623   7370.8623   7370.8623   7370.8623   7370.8623   7370.8623  34431.3477  74988.3203  74988.3203  74988.3203  74988.3203  74988.3203  74988.3203  81994.1094  98450.6172  98450.6172  98450.6172  98450.6172  98450.6172  98450.6172  98450.6172 103971.1328 183274.5000 191387.8594 143824.3125 121569.3125 125890.9922  31327.8750  32886.3906  32886.3906  32886.3906  32886.3906  32886.3906  32886.3906  32886.3906  32054.3652   7593.4688      0.0000      0.0000      0.0000      0.0000
      0.0000      0.0000      0.0000      0.0000      0.0000      0.0000      0.0000      0.0000      0.0000      0.0000      0.0000      0.0000      0.0000      0.0000      0.0000      0.0000      0.0000      0.0000      0.0000      0.0000      0.0000      0.0000      0.0000      0.0000      0.0000      0.0000      0.0000      0.0000      0.0000      0.0000      0.0000      0.0000      0.0000    939.7850   7272.0928   7370.8623   7370.8623   7370.8623   7370.8623   7370.8623   7370.8623  32159.4043  74988.3203  74988.3203  74988.3203  74988.3203  74988.3203  74988.3203  79593.9453  90412.4062  95543.6250  98450.6172  98450.6172  98450.6172  98450.6172  98450.6172  98450.6172 164231.6250 121551.0469   9581.7002   8521.0742   8521.0742  11971.2002  27842.7617  32886.3906  32886.3906  32886.3906  32886.3906  32886.3906  32886.3906  32886.3906  16518.8281      0.0000      0.0000      0.0000      0.0000
      0.0000      0.0000      0.0000      0.0000      0.0000      0.0000      0.0000      0.0000      0.0000      0.0000      0.0000      0.0000      0.0000      0.0000      0.0000      0.0000      0.0000      0.0000      0.0000      0.0000      0.0000      0.0000      0.0000      0.0000      0.0000      0.0000      0.0000      0.0000      0.0000      0.0000      0.0000      0.0000      0.0000   1962.1238   7370.8623   7370.8623   7370.8623   7370.8623   7370.8623   7370.8623   8063.2466  11660.0381  74916.4922  74988.3203  74988.3203  74988.3203  74988.3203  74988.3203  74988.3203  74988.3203  78155.6641  96620.5391  98450.6172  98450.6172  98450.6172  98450.6172  98450.6172 102709.9062  14171.6592   8521.0742   8521.0742   8521.0742   8521.0742  17740.9043  32886.3906  32886.3906  32886.3906  32886.3906  32886.3906  32886.3906  32886.3906  26453.8145      0.0000      0.0000      0.0000      0.0000
      0.0000      0.0000      0.0000      0.0000      0.0000      0.0000      0.0000      0.0000      0.0000      0.0000      0.0000      0.0000      0.0000      0.0000      0.0000      0.0000      0.0000      0.0000      0.0000      0.0000      0.0000      0.0000      0.0000      0.0000      0.0000      0.0000      0.0000      0.0000      0.0000      0.0000      0.0000      0.0000      0.0000    642.7393   7345.8003   7370.8623   7370.8623   7370.8623   7370.8623   9189.6455  14398.5342  15176.7900  54550.7188  74988.3203  74988.3203  74988.3203  74988.3203  74988.3203  74988.3203  74988.3203  74988.3203  86766.3906  98450.6172  98450.6172  98450.6172  98450.6172  98450.6172  46858.0352   8521.0742   8521.0742   8521.0742   8521.0742   8521.0742   8514.2607  25888.6699  32886.3906  32886.3906  32886.3906  32886.3906  32886.3906  28847.9414  11431.3076      0.0000      0.0000      0.0000      0.0000
      0.0000      0.0000      0.0000      0.0000      0.0000      0.0000      0.0000      0.0000      0.0000      0.0000      0.0000      0.0000      0.0000      0.0000      0.0000      0.0000      0.0000      0.0000      0.0000      0.0000      0.0000      0.0000      0.0000      0.0000      0.0000      0.0000      0.0000      0.0000      0.0000      0.0000      0.0000      0.0000      0.0000      0.0000   6624.1943   7370.8623   7370.8623   7370.8623   8705.6729  14706.0889  15176.7900  15176.7900  21032.3281  62930.3008  74898.5391  74988.3203  74988.3203  74988.3203  74988.3203  74988.3203  74988.3203  87322.3984  98450.6172  98450.6172  98450.6172  98450.6172  98450.6172  28188.6602   8521.0742   8521.0742   8521.0742   8521.0742   8521.0742   8630.7227  22048.7090  30437.6758  32886.3906  32827.2031  23326.3145  21205.1387   1200.3531      0.0000      0.0000      0.0000      0.0000      0.0000
      0.0000      0.0000      0.0000      0.0000      0.0000      0.0000      0.0000      0.0000      0.0000      0.0000      0.0000      0.0000      0.0000      0.0000      0.0000      0.0000      0.0000      0.0000      0.0000      0.0000      0.0000      0.0000      0.0000      0.0000      0.0000      0.0000      0.0000      0.0000      0.0000      0.0000      0.0000      0.0000      0.0000      0.0000   5845.8320   7370.8623   7370.8623   7370.8623  11691.4395  15176.7900  15176.7900  15176.7900  15176.7900  15176.7900  32294.8340  73373.3984  74988.3203  74988.3203  74988.3203  74988.3203  74988.3203  89729.6406  98450.6172  98450.6172  96580.0938  83252.4609  52577.5781  12163.2246   8521.0742   8521.0742   8521.0742   8521.0742   8521.0742   8521.0742   8521.0742  11766.5361  20165.2598  23853.6895   1632.1598      0.0000      0.0000      0.0000      0.0000      0.0000      0.0000      0.0000
      0.0000      0.0000      0.0000      0.0000      0.0000      0.0000      0.0000      0.0000      0.0000      0.0000      0.0000      0.0000      0.0000      0.0000      0.0000      0.0000      0.0000      0.0000      0.0000      0.0000      0.0000      0.0000      0.0000      0.0000      0.0000      0.0000      0.0000      0.0000      0.0000      0.0000      0.0000      0.0000      0.0000      0.0000   3653.7358   6874.0659   7370.8623   8177.2163  14189.3398  15176.7900  15176.7900  15176.7900  15176.7900  15176.7900  15176.7900  42214.7617  95074.1641  80488.3516  74988.3203  74988.3203  74988.3203  93234.9688  98450.6172  98450.6172  57811.4492  11003.1309   8521.0742   8521.0742   8521.0742   8521.0742   8521.0742   8521.0742   8521.0742   8521.0742   8521.0742   8521.0742   8521.0742   8521.0742   6731.6509    403.8991      0.0000      0.0000      0.0000      0.0000      0.0000      0.0000
      0.0000      0.0000      0.0000      0.0000      0.0000      0.0000      0.0000      0.0000      0.0000      0.0000      0.0000      0.0000      0.0000      0.0000      0.0000      0.0000      0.0000      0.0000      0.0000      0.0000      0.0000      0.0000      0.0000      0.0000      0.0000      0.0000      0.0000      0.0000      0.0000      0.0000      0.0000      0.0000      0.0000      0.0000      0.0000   1032.6580   5785.3887  12566.4873  15176.7900  15176.7900  15176.7900  15176.7900  15176.7900  15176.7900  15176.7900  21804.4648 177374.7344 152855.1406  74988.3203  74988.3203  74988.3203  95832.1719  98450.6172  98450.6172  96013.4766  17073.3730   8521.0742   8521.0742   8521.0742   8521.0742   8521.0742   8521.0742   8521.0742   8521.0742   8521.0742   8521.0742   8521.0742   7168.7837   2449.8101      0.0000      0.0000      0.0000      0.0000      0.0000      0.0000      0.0000
      0.0000      0.0000      0.0000      0.0000      0.0000      0.0000      0.0000      0.0000      0.0000      0.0000      0.0000      0.0000      0.0000      0.0000      0.0000      0.0000      0.0000      0.0000      0.0000      0.0000      0.0000      0.0000      0.0000      0.0000      0.0000      0.0000      0.0000      0.0000      0.0000      0.0000      0.0000      0.0000      0.0000      0.0000      0.0000      0.0000    867.8954  13201.5020  15176.7900  15176.7900  15176.7900  15176.7900  15176.7900  15176.7900  17527.1758 133797.3594 196177.8438 221864.1250  82554.6797  78040.7734  85316.3594  98366.1953  98450.6172  98450.6172  65608.3750   8521.0742   8521.0742   8521.0742   8521.0742   8521.0742   8521.0742   8521.0742   8521.0742   8521.0742   8521.0742   8521.0742   7221.6133   1170.7959      0.0000      0.0000      0.0000      0.0000      0.0000      0.0000      0.0000      0.0000
      0.0000      0.0000      0.0000      0.0000      0.0000      0.0000      0.0000      0.0000      0.0000      0.0000      0.0000      0.0000      0.0000      0.0000      0.0000      0.0000      0.0000      0.0000      0.0000      0.0000      0.0000      0.0000      0.0000      0.0000      0.0000      0.0000      0.0000      0.0000      0.0000      0.0000      0.0000      0.0000      0.0000      0.0000      0.0000      0.0000      0.0000   1476.7010   4660.7881   6969.1807  12976.1543  17448.9395  28946.0977  15167.6797  56658.0000 226923.5625 226923.5625 226923.5625 179586.0000  96012.8438  98450.6172  98450.6172  90965.2891  44834.1055  16174.3721   8685.5176   8521.0742   8521.0742   8521.0742   8521.0742   8521.0742   8521.0742   8521.0742   8521.0742   8521.0742   8521.0742   5529.3271      0.0000      0.0000      0.0000      0.0000      0.0000      0.0000      0.0000      0.0000      0.0000
      0.0000      0.0000      0.0000      0.0000      0.0000      0.0000      0.0000      0.0000      0.0000      0.0000      0.0000      0.0000      0.0000      0.0000      0.0000      0.0000      0.0000      0.0000      0.0000      0.0000      0.0000      0.0000      0.0000      0.0000      0.0000      0.0000      0.0000      0.0000      0.0000      0.0000      0.0000      0.0000      0.0000      0.0000      0.0000      0.0000      0.0000      0.0000      0.0000      0.0000  60143.8203 153687.7031 162458.3281 149188.9219 163807.6875 226623.4531 226923.5625 226923.5625 225985.7500 151792.5312  95707.5312  63381.5977  21087.2500   8805.9111   8805.9111   8798.8701   8325.7100   7995.0605   8518.4883   8521.0742   8438.1553   8469.2510   8521.0742   8521.0742   8521.0742   6596.1670    388.5610      0.0000      0.0000      0.0000      0.0000      0.0000      0.0000      0.0000      0.0000      0.0000
      0.0000      0.0000      0.0000      0.0000      0.0000      0.0000      0.0000      0.0000      0.0000      0.0000      0.0000      0.0000      0.0000      0.0000      0.0000      0.0000      0.0000      0.0000      0.0000      0.0000      0.0000      0.0000      0.0000      0.0000      0.0000      0.0000      0.0000      0.0000      0.0000      0.0000      0.0000      0.0000      0.0000      0.0000      0.0000      0.0000      0.0000      0.0000      0.0000      0.0000 124523.9453 166654.1719 166654.1719 166654.1719 175846.1406 224130.1719 224789.2812 225541.9844 226923.5625 221555.5156  60572.0508   8805.9111   8805.9111   8805.9111   8805.9111   8805.9111   7465.6670   5641.9600   6372.6768   7396.2080   6289.7603   6180.0640   6878.8276   8035.3706   7691.6035   3423.5427      0.0000      0.0000      0.0000      0.0000      0.0000      0.0000      0.0000      0.0000      0.0000      0.0000
      0.0000      0.0000      0.0000      0.0000      0.0000      0.0000      0.0000      0.0000      0.0000      0.0000      0.0000      0.0000      0.0000      0.0000      0.0000      0.0000      0.0000      0.0000      0.0000      0.0000      0.0000      0.0000      0.0000      0.0000      0.0000      0.0000      0.0000      0.0000      0.0000      0.0000      0.0000      0.0000      0.0000      0.0000      0.0000      0.0000      0.0000      0.0000      0.0000      0.0000   9915.9268 141372.7812 166654.1719 166654.1719 166654.1719 199920.4844 223656.0781 224497.1406 205975.9844 127287.2266   8805.9111   8805.9111   8805.9111   8805.9111   8805.9111   8805.9111   7899.4434   5641.9600   5641.9600   5641.9600   5641.9600   5641.9600   5641.9600   5641.9600   5641.9600   3458.5203      0.0000      0.0000      0.0000      0.0000      0.0000      0.0000      0.0000      0.0000      0.0000      0.0000
      0.0000      0.0000      0.0000      0.0000      0.0000      0.0000      0.0000      0.0000      0.0000      0.0000      0.0000      0.0000      0.0000      0.0000      0.0000      0.0000      0.0000      0.0000      0.0000      0.0000      0.0000      0.0000      0.0000      0.0000      0.0000      0.0000      0.0000      0.0000      0.0000      0.0000      0.0000      0.0000      0.0000      0.0000      0.0000      0.0000      0.0000      0.0000      0.0000      0.0000      0.0000      0.0000  66711.7188 114258.1484 166604.1562 169481.5156 201852.7969 216798.7031 223633.6250 130318.9609   8805.9111   8805.9111   8805.9111   8805.9111   8805.9111   8805.9111   8045.6196   5641.9600   5641.9600   5641.9600   5641.9600   5641.9600   5641.9600   5641.9600   5641.9600   2275.4016      0.0000      0.0000      0.0000      0.0000      0.0000      0.0000      0.0000      0.0000      0.0000      0.0000
      0.0000      0.0000      0.0000      0.0000      0.0000      0.0000      0.0000      0.0000      0.0000      0.0000      0.0000      0.0000      0.0000      0.0000      0.0000      0.0000      0.0000      0.0000      0.0000      0.0000      0.0000      0.0000      0.0000      0.0000      0.0000      0.0000      0.0000      0.0000      0.0000      0.0000      0.0000      0.0000      0.0000      0.0000      0.0000      0.0000      0.0000      0.0000      0.0000      0.0000      0.0000      0.0000      0.0000  38730.4531 166654.1719 166654.1719 166654.1719 191005.2812 223656.0781 221271.1094 153915.4688 163841.6875 163326.0781 117176.3125  77278.6562  61487.1641  25479.8125   6557.6182   5641.9600   5641.9600   5641.9600   5641.9600   5641.9600   5641.9600   4296.9150    436.6874      0.0000      0.0000      0.0000      0.0000      0.0000      0.0000      0.0000      0.0000      0.0000      0.0000
      0.0000      0.0000      0.0000      0.0000      0.0000      0.0000      0.0000      0.0000      0.0000      0.0000      0.0000      0.0000      0.0000      0.0000      0.0000      0.0000      0.0000      0.0000      0.0000      0.0000      0.0000      0.0000      0.0000      0.0000      0.0000      0.0000      0.0000      0.0000      0.0000      0.0000      0.0000      0.0000      0.0000      0.0000      0.0000      0.0000      0.0000      0.0000      0.0000      0.0000      0.0000      0.0000      0.0000  35230.7266 166654.1719 166654.1719 166654.1719 210055.4219 223656.0781 223656.0781 223656.0781 223656.0781 223656.0781 223656.0781 223656.0781 223656.0781 223656.0781  52946.2031   5641.9600   5641.9600   6095.3906   7520.0820   8043.2754   8799.7646    291.6893      0.0000      0.0000      0.0000      0.0000      0.0000      0.0000      0.0000      0.0000      0.0000      0.0000      0.0000
      0.0000      0.0000      0.0000      0.0000      0.0000      0.0000      0.0000      0.0000      0.0000      0.0000      0.0000      0.0000      0.0000      0.0000      0.0000      0.0000      0.0000      0.0000      0.0000      0.0000      0.0000      0.0000      0.0000      0.0000      0.0000      0.0000      0.0000      0.0000      0.0000      0.0000      0.0000      0.0000      0.0000      0.0000      0.0000      0.0000      0.0000      0.0000      0.0000      0.0000      0.0000      0.0000      0.0000  79277.4531 166654.1719 166654.1719 166654.1719 209661.9531 223656.0781 223656.0781 223656.0781 223656.0781 223656.0781 223656.0781 223656.0781 223656.0781 185410.7969   1219.4508   6418.3159   9231.8584  17580.1328  19057.1367  19057.1367  18820.8262   1983.8483      0.0000      0.0000      0.0000      0.0000      0.0000      0.0000      0.0000      0.0000      0.0000      0.0000      0.0000
      0.0000      0.0000      0.0000      0.0000      0.0000      0.0000      0.0000      0.0000      0.0000      0.0000      0.0000      0.0000      0.0000      0.0000      0.0000      0.0000      0.0000      0.0000      0.0000      0.0000      0.0000      0.0000      0.0000      0.0000      0.0000      0.0000      0.0000  13745.5850   8105.9233      0.0000      0.0000      0.0000      0.0000      0.0000      0.0000      0.0000      0.0000      0.0000     66.0225   1672.5693      0.0000      0.0000  53612.6719 164804.3594 166654.1719 166654.1719 166654.1719 203933.4375 223656.0781 223656.0781 223656.0781 223656.0781 223656.0781 223656.0781 223656.0781 218310.5312  48108.4023   2237.3071  18228.1523  18996.7598  19057.1367  19057.1367  19057.1367  19057.1367  18542.5938   7925.8633     34.3028      0.0000      0.0000      0.0000      0.0000      0.0000      0.0000      0.0000      0.0000      0.0000
      0.0000      0.0000      0.0000      0.0000      0.0000      0.0000      0.0000      0.0000      0.0000      0.0000      0.0000      0.0000      0.0000      0.0000      0.0000      0.0000      0.0000      0.0000      0.0000      0.0000      0.0000      0.0000      0.0000      0.0000      0.0000      0.0000  49537.1602  85240.3438  84754.1484   9776.6016      0.0000      0.0000      0.0000      0.0000      0.0000      0.0000      0.0000   2577.3223  16818.6172  13439.2402      0.0000      0.0000   7782.7466 116391.3906 166654.1719 166654.1719 182820.0156 221814.9062 223656.0781 223656.0781 223656.0781 221240.5312 222627.1719 221061.5469 159667.9531  55377.1953      0.0000   8571.9014  19057.1367  19057.1367  19057.1367  19057.1367  19057.1367  19057.1367  19057.1367  19057.1367   2870.0051      0.0000      0.0000      0.0000      0.0000      0.0000      0.0000      0.0000      0.0000      0.0000
      0.0000      0.0000      0.0000      0.0000      0.0000      0.0000      0.0000      0.0000      0.0000      0.0000      0.0000      0.0000      0.0000      0.0000      0.0000      0.0000      0.0000      0.0000      0.0000      0.0000      0.0000      0.0000      0.0000      0.0000      0.0000  12675.9951  87830.3672  88396.0391  88396.0391  69408.6016  30045.8320  11535.6807   9573.2910      0.0000      0.0000    264.0899   1437.8232  21572.2363  22824.2207   2912.3250      0.0000      0.0000   7849.4126 147172.3594 166654.1719 166654.1719 190606.3281 223656.0781 223656.0781 197219.9688  72352.7109  24781.0938  14202.1523  27107.1133      0.0000      0.0000      0.0000  10607.2021  19057.1367  19057.1367  19057.1367  19057.1367  19057.1367  19057.1367  19057.1367  19057.1367   5105.4092      0.0000      0.0000      0.0000      0.0000      0.0000      0.0000      0.0000      0.0000      0.0000
      0.0000      0.0000      0.0000      0.0000      0.0000      0.0000      0.0000      0.0000      0.0000      0.0000      0.0000      0.0000      0.0000      0.0000      0.0000      0.0000      0.0000      0.0000      0.0000      0.0000      0.0000      0.0000      0.0000      0.0000      0.0000  44834.4844  88396.0391  88396.0391  88396.0391  88396.0391  88396.0391  88236.9766  70018.5547  12066.0654      0.0000  14994.4443  23264.3652  24452.7637  10595.3867      0.0000      0.0000      0.0000  97409.4609 166654.1719 166654.1719 166654.1719 181719.8125 220349.9219 223656.0781 103440.9297      0.0000      0.0000      0.0000      0.0000      0.0000      0.0000     22.8686  15884.1240  19057.1367  19057.1367  19057.1367  19057.1367  19057.1367  19057.1367  19057.1367  19057.1367  18982.8105   9048.3281      0.0000      0.0000      0.0000      0.0000      0.0000      0.0000      0.0000      0.0000
      0.0000      0.0000      0.0000      0.0000      0.0000      0.0000      0.0000      0.0000      0.0000      0.0000      0.0000      0.0000      0.0000      0.0000      0.0000      0.0000      0.0000      0.0000      0.0000      0.0000      0.0000      0.0000      0.0000      0.0000      0.0000  56104.9805  88396.0391  88396.0391  88396.0391  88396.0391  88396.0391  88396.0391  88396.0391  83578.5391  54061.2148  23767.8438  24452.7637  24266.9355   2726.4836      0.0000      0.0000      0.0000 136656.4531 166654.1719 166654.1719 166654.1719 161537.9688 108152.1562 169732.5156  32966.8906      0.0000      0.0000      0.0000      0.0000      0.0000      0.0000   6111.6235  19057.1367  19057.1367  19057.1367  19057.1367  19057.1367  19057.1367  19057.1367  19057.1367  16798.8652  13724.9502   6027.7734      0.0000      0.0000      0.0000      0.0000      0.0000      0.0000      0.0000      0.0000
      0.0000      0.0000      0.0000      0.0000      0.0000      0.0000      0.0000      0.0000      0.0000      0.0000      0.0000      0.0000      0.0000      0.0000      0.0000      0.0000      0.0000      0.0000      0.0000      0.0000      0.0000      0.0000      0.0000      0.0000      0.0000  70319.0625  88396.0391  88396.0391  88396.0391  88396.0391  88396.0391  88396.0391  88396.0391  88396.0391  85390.7734  24510.3105  24452.7637  24330.5078   1804.6146      0.0000      0.0000   8560.9033 111458.2344 166654.1719 166654.1719 166654.1719 114424.8594      0.0000      0.0000      0.0000      0.0000      0.0000      0.0000      0.0000      0.0000      0.0000  14155.6387  19057.1367  19057.1367  19057.1367  19057.1367  19057.1367  19057.1367  19057.1367  13311.4082    459.2771      0.0000      0.0000      0.0000      0.0000      0.0000      0.0000      0.0000      0.0000      0.0000      0.0000
      0.0000      0.0000      0.0000      0.0000      0.0000      0.0000      0.0000      0.0000      0.0000      0.0000      0.0000      0.0000      0.0000      0.0000      0.0000      0.0000      0.0000      0.0000      0.0000      0.0000      0.0000      0.0000      0.0000      0.0000      0.0000  65810.8828  88396.0391  88396.0391  88396.0391  88396.0391  88396.0391  88396.0391  88396.0391  88207.0156  64963.8594  24452.7637  24452.7637  18212.4316      0.0000      0.0000  29710.3457  79061.8906 109529.2266 166654.1719 166654.1719 166654.1719  56479.1211      0.0000      0.0000      0.0000      0.0000      0.0000      0.0000      0.0000      0.0000   4394.5737  18994.2480  19057.1367  19057.1367  19057.1367  19057.1367  19057.1367  19057.1367  14904.5869   1406.4164      0.0000      0.0000      0.0000      0.0000      0.0000      0.0000      0.0000      0.0000      0.0000      0.0000      0.0000
      0.0000      0.0000      0.0000      0.0000      0.0000      0.0000      0.0000      0.0000      0.0000      0.0000      0.0000      0.0000      0.0000      0.0000      0.0000      0.0000      0.0000      0.0000      0.0000      0.0000      0.0000      0.0000      0.0000      0.0000   1962.3936  86442.5312  88396.0391  88396.0391  88396.0391  88396.0391  88396.0391  88175.3516  86547.7891  85988.8594  64523.3672  56414.9219  52262.7305  50564.6523  64482.7227  78736.2344  84169.3594  85694.6797  86625.7266 161262.3125 166654.1719 160571.4062  39663.7070      0.0000      0.0000      0.0000      0.0000      0.0000      0.0000      0.0000   4880.5337  16299.5654  19057.1367  19057.1367  19057.1367  19057.1367  19057.1367  19057.1367  19057.1367  10336.5918      0.0000      0.0000      0.0000      0.0000      0.0000      0.0000      0.0000      0.0000      0.0000      0.0000      0.0000      0.0000
      0.0000      0.0000      0.0000      0.0000      0.0000      0.0000      0.0000      0.0000      0.0000      0.0000      0.0000      0.0000      0.0000      0.0000      0.0000      0.0000      0.0000      0.0000      0.0000      0.0000      0.0000      0.0000      0.0000      0.0000   1644.1670  79361.9531  88396.0391  88396.0391  88396.0391  88396.0391  87428.4219  86164.4922  85694.6797  85694.6797  85694.6797  85694.6797  85694.6797  85694.6797  85694.6797  85694.6797  85694.6797  85694.6797 119535.8203 166654.1719 166654.1719 152738.5312   9899.2646      0.0000      0.0000      0.0000      0.0000      0.0000      0.0000      0.0000  12728.2607  19057.1367  19057.1367  19057.1367  19057.1367  19057.1367  19057.1367  19057.1367  17616.4160   2338.3108      0.0000      0.0000      0.0000      0.0000      0.0000      0.0000      0.0000      0.0000      0.0000      0.0000      0.0000      0.0000
      0.0000      0.0000      0.0000      0.0000      0.0000      0.0000      0.0000      0.0000      0.0000      0.0000      0.0000      0.0000      0.0000      0.0000      0.0000      0.0000      0.0000      0.0000      0.0000      0.0000      0.0000      0.0000      0.0000      0.0000      0.0000   6709.2617  47150.4609  88396.0391  87582.8359  72176.2031  85770.0703  85694.6797  85694.6797  85694.6797  85694.6797  85694.6797  85694.6797  85694.6797  85694.6797  85694.6797  85694.6797  85694.6797 149652.7344 166654.1719 166654.1719 132390.1562      0.0000      0.0000      0.0000      0.0000      0.0000      0.0000      0.0000   4653.7554  18559.7383  19057.1367  19057.1367  19057.1367  19057.1367  19057.1367  19057.1367  19057.1367  13174.2031      0.0000      0.0000      0.0000      0.0000      0.0000      0.0000      0.0000      0.0000      0.0000      0.0000      0.0000      0.0000      0.0000
      0.0000      0.0000      0.0000      0.0000      0.0000      0.0000      0.0000      0.0000      0.0000      0.0000      0.0000      0.0000      0.0000      0.0000      0.0000      0.0000      0.0000      0.0000      0.0000      0.0000      0.0000      0.0000      0.0000      0.0000      0.0000      0.0000    318.2260  27358.5898  13294.7686    231.3757  25776.9629  85557.6016  85694.6797  85694.6797  85694.6797  85694.6797  85694.6797  85694.6797  85694.6797  85694.6797  85694.6797  85694.6797 104897.1172 119753.6094 120678.6172 104854.9531      0.0000      0.0000      0.0000      0.0000      0.0000      0.0000   5976.3198  16349.1162  19057.1367  19057.1367  19057.1367  19057.1367  19057.1367  19057.1367  19057.1367  14087.0342     60.9828      0.0000      0.0000      0.0000      0.0000      0.0000      0.0000      0.0000      0.0000      0.0000      0.0000      0.0000      0.0000      0.0000
      0.0000      0.0000      0.0000      0.0000      0.0000      0.0000      0.0000      0.0000      0.0000      0.0000      0.0000      0.0000      0.0000      0.0000      0.0000      0.0000      0.0000      0.0000      0.0000      0.0000      0.0000      0.0000      0.0000      0.0000      0.0000      0.0000      0.0000      0.0000      0.0000      0.0000      0.0000  12665.6797  63071.2578  85694.6797  85694.6797  85694.6797  85694.6797  85694.6797  85694.6797  85694.6797  85694.6797  85694.6797  94410.0625 106191.8516 106191.8516  98662.3672  36126.4531      0.0000      0.0000      0.0000      0.0000      0.0000  13084.6270  19057.1367  19057.1367  19057.1367  19057.1367  19057.1367  19057.1367  19057.1367  16861.7617   2084.8508      0.0000      0.0000      0.0000      0.0000      0.0000      0.0000      0.0000      0.0000      0.0000      0.0000      0.0000      0.0000      0.0000      0.0000
      0.0000      0.0000      0.0000      0.0000      0.0000      0.0000      0.0000      0.0000      0.0000      0.0000      0.0000      0.0000      0.0000      0.0000      0.0000      0.0000      0.0000      0.0000      0.0000      0.0000      0.0000      0.0000      0.0000      0.0000      0.0000      0.0000      0.0000      0.0000      0.0000      0.0000      0.0000      0.0000  30387.3379  85206.2422  85694.6797  85694.6797  85694.6797  85694.6797  85694.6797  85694.6797  85694.6797  85694.6797  96771.3516 106191.8516 106191.8516  59159.4688      0.0000      0.0000      0.0000      0.0000      0.0000      0.0000  14519.6318  19057.1367  19057.1367  19057.1367  19057.1367  19057.1367  19057.1367  19057.1367  13178.0088      0.0000      0.0000      0.0000      0.0000      0.0000      0.0000      0.0000      0.0000      0.0000      0.0000      0.0000      0.0000      0.0000      0.0000      0.0000
      0.0000      0.0000      0.0000      0.0000      0.0000      0.0000      0.0000      0.0000      0.0000      0.0000      0.0000      0.0000      0.0000      0.0000      0.0000      0.0000      0.0000      0.0000      0.0000      0.0000      0.0000      0.0000      0.0000      0.0000      0.0000      0.0000      0.0000      0.0000      0.0000      0.0000      0.0000      0.0000      0.0000  41424.8242  85694.6797  85694.6797  85694.6797  85694.6797  85694.6797  85694.6797  85694.6797  49034.5039  15656.9473  72380.3672 104821.9297  18923.3848      0.0000      0.0000      0.0000      0.0000      0.0000      0.0000   8099.2837  19057.1367  19057.1367  19057.1367  19057.1367  19057.1367  19057.1367  19057.1367  19007.5840   7559.9663      0.0000      0.0000      0.0000      0.0000      0.0000      0.0000      0.0000      0.0000      0.0000      0.0000      0.0000      0.0000      0.0000      0.0000
      0.0000      0.0000      0.0000      0.0000      0.0000      0.0000      0.0000      0.0000      0.0000      0.0000      0.0000      0.0000      0.0000      0.0000      0.0000      0.0000      0.0000      0.0000      0.0000      0.0000      0.0000      0.0000      0.0000      0.0000   1005.2761   9825.9609  11346.1377    845.9031      0.0000      0.0000      0.0000      0.0000      0.0000   2579.4099  68366.7734  81489.6719  85694.6797  84482.1016  79844.4688  69864.7422  36103.1641   1551.0734      0.0000  20091.4941  81374.7578      0.0000      0.0000      0.0000      0.0000      0.0000      0.0000      0.0000   7939.2046  19057.1367  19057.1367  19057.1367  19057.1367  19057.1367  19057.1367  19057.1367  18805.5859   6349.8379      0.0000      0.0000      0.0000      0.0000      0.0000      0.0000      0.0000      0.0000      0.0000      0.0000      0.0000      0.0000      0.0000      0.0000
      0.0000      0.0000      0.0000      0.0000      0.0000      0.0000      0.0000      0.0000      0.0000      0.0000      0.0000      0.0000      0.0000      0.0000      0.0000      0.0000      0.0000      0.0000      0.0000      0.0000      0.0000      0.0000      0.0000      0.0000  13015.4609  20432.4434  20432.4434  10539.0498    132.8109      0.0000      0.0000      0.0000      0.0000      0.0000  48845.3906  64057.1445  68311.8281  63014.7344  62057.4180  46176.9258  13913.2725   2445.0615      0.0000   9875.8457  21567.5645      0.0000      0.0000      0.0000      0.0000      0.0000      0.0000     70.5114  13677.3066  19057.1367  19057.1367  19057.1367  19057.1367  19057.1367  19057.1367  19057.1367  10713.9238      0.0000      0.0000      0.0000      0.0000      0.0000      0.0000      0.0000      0.0000      0.0000      0.0000      0.0000      0.0000      0.0000      0.0000      0.0000
      0.0000      0.0000      0.0000      0.0000      0.0000      0.0000      0.0000      0.0000      0.0000      0.0000      0.0000      0.0000      0.0000      0.0000      0.0000      0.0000      0.0000      0.0000      0.0000      0.0000      0.0000      0.0000      0.0000   2059.5908  13873.6299  20432.4434  20432.4434  20432.4434  12717.1494      0.0000      0.0000      0.0000      0.0000      0.0000  55063.5547  62057.4180  62057.4180  62057.4180  62057.4180  62057.4180  62057.4180  50645.0625  16544.5078  24121.7363  14924.8125  11852.9766   5628.6108      0.0000      0.0000      0.0000      0.0000   8417.5371  19057.1367  19057.1367  19057.1367  19057.1367  19057.1367  19057.1367  19057.1367  18119.5215   2458.3711      0.0000      0.0000      0.0000      0.0000      0.0000      0.0000      0.0000      0.0000      0.0000      0.0000      0.0000      0.0000      0.0000      0.0000      0.0000
      0.0000      0.0000      0.0000      0.0000      0.0000      0.0000      0.0000      0.0000      0.0000      0.0000      0.0000      0.0000      0.0000      0.0000      0.0000      0.0000      0.0000      0.0000      0.0000      0.0000      0.0000      0.0000      0.0000   8532.5908  20432.4434  20432.4434  20432.4434  20432.4434  20391.5742   2887.1038      0.0000      0.0000      0.0000      0.0000  51731.0586  62057.4180  62057.4180  62057.4180  62057.4180  62057.4180  62057.4180  62057.4180  62020.1758  62057.4180  62057.4180  62057.4180  60872.1680  44569.6289  40417.9922  33455.1562  11935.7422  18799.8750  19057.1367  19057.1367  19057.1367  19057.1367  19057.1367  19057.1367  19057.1367   5313.1313      0.0000      0.0000      0.0000      0.0000      0.0000      0.0000      0.0000      0.0000      0.0000      0.0000      0.0000      0.0000      0.0000      0.0000      0.0000      0.0000
      0.0000      0.0000      0.0000      0.0000      0.0000      0.0000      0.0000      0.0000      0.0000      0.0000      0.0000      0.0000      0.0000      0.0000      0.0000      0.0000      0.0000      0.0000      0.0000      0.0000      0.0000      0.0000      0.0000   6270.7134  20432.4434  20432.4434  20432.4434  20432.4434  20432.4434  11342.0430      0.0000      0.0000      0.0000      0.0000  25629.7148  62057.4180  62057.4180  62057.4180  62057.4180  62057.4180  62057.4180  62057.4180  62057.4180  62057.4180  62057.4180  62057.4180  62057.4180  62057.4180  62057.4180  61623.1211  26552.0859  19057.1367  19057.1367  19057.1367  19057.1367  19057.1367  19057.1367  19057.1367  18188.1289    459.2771      0.0000      0.0000      0.0000      0.0000      0.0000      0.0000      0.0000      0.0000      0.0000      0.0000      0.0000      0.0000      0.0000      0.0000      0.0000      0.0000
      0.0000      0.0000      0.0000      0.0000      0.0000      0.0000      0.0000      0.0000      0.0000      0.0000      0.0000      0.0000      0.0000      0.0000      0.0000      0.0000      0.0000      0.0000      0.0000      0.0000      0.0000      0.0000      0.0000   7931.8745  20432.4434  20432.4434  20432.4434  20432.4434  20432.4434  16190.6680    281.9677      0.0000      0.0000      0.0000   2277.5068  40020.8398  62057.4180  62057.4180  62057.4180  62057.4180  62057.4180  62057.4180  62057.4180  62057.4180  62057.4180  62057.4180  60006.3242  61154.4375  38364.2578  21009.3359  19057.1367  19057.1367  19057.1367  19057.1367  19057.1367  19057.1367  19057.1367  19057.1367  19057.1367   3620.8557      0.0000      0.0000      0.0000      0.0000      0.0000      0.0000      0.0000      0.0000      0.0000      0.0000      0.0000      0.0000      0.0000      0.0000      0.0000      0.0000
      0.0000      0.0000      0.0000      0.0000      0.0000      0.0000      0.0000      0.0000      0.0000      0.0000      0.0000      0.0000      0.0000      0.0000      0.0000      0.0000      0.0000      0.0000      0.0000      0.0000      0.0000      0.0000      0.0000  14944.2852  20432.4434  20432.4434  20432.4434  20432.4434  20432.4434  20432.4434  19320.9219   8606.1445      0.0000      0.0000      0.0000      0.0000  43291.2656  62057.4180  62057.4180  62057.4180  62057.4180  62057.4180  62057.4180  62057.4180  62057.4180  55400.9688  22170.3613  24827.7793  19057.1367  19057.1367  19057.1367  19057.1367  19057.1367  19057.1367  19057.1367  19057.1367  19057.1367  19057.1367  16775.9980     36.2086      0.0000      0.0000      0.0000      0.0000      0.0000      0.0000      0.0000      0.0000      0.0000      0.0000      0.0000      0.0000      0.0000      0.0000      0.0000      0.0000
      0.0000      0.0000      0.0000      0.0000      0.0000      0.0000      0.0000      0.0000      0.0000      0.0000      0.0000      0.0000      0.0000      0.0000      0.0000      0.0000      0.0000      0.0000      0.0000      0.0000      0.0000      0.0000   5361.4722  20358.8867  20432.4434  20432.4434  20432.4434  20432.4434  20432.4434  20432.4434  20432.4434  13630.4854      0.0000      0.0000      0.0000      0.0000  34857.6562  62057.4180  62057.4180  62057.4180  62057.4180  62057.4180  62057.4180  62057.4180  62020.1758  32034.6250  19057.1367  19057.1367  19057.1367  19057.1367  19057.1367  19057.1367  19057.1367  19057.1367  19057.1367  19057.1367  19057.1367  14458.6484   5562.7764      0.0000      0.0000      0.0000      0.0000      0.0000      0.0000      0.0000      0.0000      0.0000      0.0000      0.0000      0.0000      0.0000      0.0000      0.0000      0.0000      0.0000
      0.0000      0.0000      0.0000      0.0000      0.0000      0.0000      0.0000      0.0000      0.0000      0.0000      0.0000      0.0000      0.0000      0.0000      0.0000      0.0000      0.0000      0.0000      0.0000      0.0000      0.0000      0.0000   9554.2109  20432.4434  20432.4434  20432.4434  20432.4434  20432.4434  20432.4434  20432.4434  20432.4434  20031.9668   5931.5396      0.0000      0.0000      0.0000  12057.7607  61697.4844  62057.4180  62057.4180  62057.4180  62057.4180  62057.4180  59782.7148  27592.7012  19045.6992  19057.1367  19057.1367  19057.1367  19057.1367  19057.1367  19057.1367  19057.1367  19057.1367  19057.1367  19057.1367  16553.0371   2995.7822      0.0000      0.0000      0.0000      0.0000      0.0000      0.0000      0.0000      0.0000      0.0000      0.0000      0.0000      0.0000      0.0000      0.0000      0.0000      0.0000      0.0000      0.0000
      0.0000      0.0000      0.0000      0.0000      0.0000      0.0000      0.0000      0.0000      0.0000      0.0000      0.0000      0.0000      0.0000      0.0000      0.0000      0.0000      0.0000      0.0000      0.0000      0.0000      0.0000      0.0000   4791.4062  20432.4434  20432.4434  20432.4434  20432.4434  20432.4434  20432.4434  20432.4434  20432.4434  20432.4434  10839.4072      0.0000      0.0000      0.0000   2736.7324  59922.6445  62057.4180  62057.4180  62057.4180  62057.4180  59670.9062  28960.0977  19057.1367  19057.1367  19057.1367  19057.1367  19057.1367  19057.1367  19057.1367  19057.1367  19057.1367  19057.1367  19057.1367  17210.4980   2877.6272      0.0000      0.0000      0.0000      0.0000      0.0000      0.0000      0.0000      0.0000      0.0000      0.0000      0.0000      0.0000      0.0000      0.0000      0.0000      0.0000      0.0000      0.0000      0.0000
      0.0000      0.0000      0.0000      0.0000      0.0000      0.0000      0.0000      0.0000      0.0000      0.0000      0.0000      0.0000      0.0000      0.0000      0.0000      0.0000      0.0000      0.0000      0.0000      0.0000      0.0000      0.0000    680.4003  19590.6250  20432.4434  20432.4434  20432.4434  20432.4434  20432.4434  20432.4434  20432.4434  20432.4434  10643.2617      0.0000      0.0000      0.0000   7211.0752  61834.0234  62057.4180  62057.4180  62057.4180  62057.4180  60741.6211  22742.2578  19057.1367  19057.1367  19057.1367  19057.1367  19057.1367  19057.1367  19057.1367  19057.1367  19057.1367  19057.1367  19057.1367  12478.6094      0.0000      0.0000      0.0000      0.0000      0.0000      0.0000      0.0000      0.0000      0.0000      0.0000      0.0000      0.0000      0.0000      0.0000      0.0000      0.0000      0.0000      0.0000      0.0000      0.0000
      0.0000      0.0000      0.0000      0.0000      0.0000      0.0000      0.0000      0.0000      0.0000      0.0000      0.0000      0.0000      0.0000      0.0000      0.0000      0.0000      0.0000      0.0000      0.0000      0.0000      0.0000      0.0000      0.0000  16249.9180  20432.4434  20432.4434  20432.4434  20432.4434  20432.4434  20432.4434  20432.4434  20432.4434   8369.1270      0.0000      0.0000      0.0000   1203.9141  37699.8945  62057.4180  62057.4180  62057.4180  62057.4180  62057.4180  45523.8242  19057.1367  19057.1367  19057.1367  19057.1367  19057.1367  19057.1367  19057.1367  19057.1367  19057.1367  15895.5557   5640.9116   4672.8081      0.0000      0.0000      0.0000      0.0000      0.0000      0.0000      0.0000      0.0000      0.0000      0.0000      0.0000      0.0000      0.0000      0.0000      0.0000      0.0000      0.0000      0.0000      0.0000      0.0000
      0.0000      0.0000      0.0000      0.0000      0.0000      0.0000      0.0000      0.0000      0.0000      0.0000      0.0000      0.0000      0.0000      0.0000      0.0000      0.0000      0.0000      0.0000      0.0000      0.0000      0.0000      0.0000      0.0000    680.4003   7707.1162  16411.3320  20426.3086  20432.4434  20432.4434  20432.4434  20432.4434  20432.4434   3961.8501      0.0000      0.0000      0.0000      0.0000  49180.5000  62057.4180  62057.4180  62057.4180  62057.4180  62057.4180  54605.4805  19057.1367  19057.1367  19057.1367  19057.1367  19057.1367  19057.1367  19057.1367  19057.1367  19057.1367   5890.5591      0.0000      0.0000      0.0000      0.0000      0.0000      0.0000      0.0000      0.0000      0.0000      0.0000      0.0000      0.0000      0.0000      0.0000      0.0000      0.0000      0.0000      0.0000      0.0000      0.0000      0.0000      0.0000
      0.0000      0.0000      0.0000      0.0000      0.0000      0.0000      0.0000      0.0000      0.0000      0.0000      0.0000      0.0000      0.0000      0.0000      0.0000      0.0000      0.0000      0.0000      0.0000      0.0000      0.0000      0.0000      0.0000      0.0000      0.0000      0.0000   2372.2070   7380.1968  16223.3555  20432.4434  20432.4434  19972.7109    100.1190      0.0000      0.0000      0.0000  18567.5781  62057.4180  62057.4180  62057.4180  62057.4180  62057.4180  62057.4180  43034.0781  19057.1367  19057.1367  19057.1367  18811.3008  16579.7051  16162.3564  10976.9111   4356.4614   3155.8608    703.2082      0.0000      0.0000      0.0000      0.0000      0.0000      0.0000      0.0000      0.0000      0.0000      0.0000      0.0000      0.0000      0.0000      0.0000      0.0000      0.0000      0.0000      0.0000      0.0000      0.0000      0.0000      0.0000
      0.0000      0.0000      0.0000      0.0000      0.0000      0.0000      0.0000      0.0000      0.0000      0.0000      0.0000      0.0000      0.0000      0.0000      0.0000      0.0000      0.0000      0.0000      0.0000      0.0000      0.0000      0.0000      0.0000      0.0000      0.0000      0.0000      0.0000      0.0000    167.5460   7929.8286  16484.8945  20432.4434   6704.1343   3159.5671   1488.2755      0.0000  40815.1758  62057.4180  62057.4180  62057.4180  62057.4180  61980.0156  54657.0898  27317.4961  19057.1367  19057.1367  19057.1367   6656.6587      0.0000      0.0000      0.0000      0.0000      0.0000      0.0000      0.0000      0.0000      0.0000      0.0000      0.0000      0.0000      0.0000      0.0000      0.0000      0.0000      0.0000      0.0000      0.0000      0.0000      0.0000      0.0000      0.0000      0.0000      0.0000      0.0000      0.0000      0.0000
      0.0000      0.0000      0.0000      0.0000      0.0000      0.0000      0.0000      0.0000      0.0000      0.0000      0.0000      0.0000      0.0000      0.0000      0.0000      0.0000      0.0000      0.0000      0.0000      0.0000      0.0000      0.0000      0.0000      0.0000      0.0000      0.0000      0.0000      0.0000      0.0000      0.0000   3334.7856  18674.8320  13507.7334  10605.4873   3821.7317   1782.5211  31989.1895  61830.8477  75360.7578  77484.8281  59147.7070  22518.6621  19057.1367  19057.1367  19057.1367  19057.1367  17850.8184   1111.0311      0.0000      0.0000      0.0000      0.0000      0.0000      0.0000      0.0000      0.0000      0.0000      0.0000      0.0000      0.0000      0.0000      0.0000      0.0000      0.0000      0.0000      0.0000      0.0000      0.0000      0.0000      0.0000      0.0000      0.0000      0.0000      0.0000      0.0000      0.0000
      0.0000      0.0000      0.0000      0.0000      0.0000      0.0000      0.0000      0.0000      0.0000      0.0000      0.0000      0.0000      0.0000      0.0000      0.0000      0.0000      0.0000      0.0000      0.0000      0.0000      0.0000      0.0000      0.0000   1145.1388      0.0000      0.0000      0.0000      0.0000      0.0000   1269.4685   5703.8828  10906.0859  10906.0859  10906.0859   6912.2769    219.1626   2200.1487  46202.7422  83977.5859  83977.5859  80342.0156  23731.4141  19057.1367  19057.1367  19057.1367  18706.4863    634.6028      0.0000      0.0000      0.0000      0.0000      0.0000      0.0000      0.0000      0.0000      0.0000      0.0000      0.0000      0.0000      0.0000      0.0000      0.0000      0.0000      0.0000      0.0000      0.0000      0.0000      0.0000      0.0000      0.0000      0.0000      0.0000      0.0000      0.0000      0.0000      0.0000
      0.0000      0.0000      0.0000      0.0000      0.0000      0.0000      0.0000      0.0000      0.0000      0.0000      0.0000      0.0000      0.0000      0.0000      0.0000      0.0000      0.0000      0.0000      0.0000      0.0000      0.0000      0.0000      0.0000   3670.9875   3114.7783      0.0000      0.0000      0.0000      0.0000   9779.4844  10906.0859  10906.0859  10906.0859  10906.0859  10863.2266  29985.6562  25109.2852  80190.1719  83977.5859  66955.3281  16050.9258  18087.1270  19057.1367  19057.1367  19057.1367  13789.7451      0.0000      0.0000      0.0000      0.0000      0.0000      0.0000      0.0000      0.0000      0.0000      0.0000      0.0000      0.0000      0.0000      0.0000      0.0000      0.0000      0.0000      0.0000      0.0000      0.0000      0.0000      0.0000      0.0000      0.0000      0.0000      0.0000      0.0000      0.0000      0.0000      0.0000
      0.0000      0.0000      0.0000      0.0000      0.0000      0.0000      0.0000      0.0000      0.0000      0.0000      0.0000      0.0000      0.0000      0.0000      0.0000      0.0000      0.0000      0.0000      0.0000      0.0000      0.0000      0.0000      0.0000   1946.7366  10898.4482   9442.4912   7786.9463   2807.2263   4858.6611  10790.4805  10906.0859  10906.0859  24519.2988  68362.1797  70612.7656  83977.5859  83977.5859  83977.5859  83297.3672   7507.5947      0.0000   7878.2197  19057.1367  19057.1367  19057.1367   5528.4746      0.0000      0.0000      0.0000      0.0000      0.0000      0.0000      0.0000      0.0000      0.0000      0.0000      0.0000      0.0000      0.0000      0.0000      0.0000      0.0000      0.0000      0.0000      0.0000      0.0000      0.0000      0.0000      0.0000      0.0000      0.0000      0.0000      0.0000      0.0000      0.0000      0.0000
      0.0000      0.0000      0.0000      0.0000      0.0000      0.0000      0.0000      0.0000      0.0000      0.0000      0.0000      0.0000      0.0000      0.0000      0.0000      0.0000      0.0000      0.0000      0.0000      0.0000      0.0000      0.0000      0.0000   2928.2847  10906.0859  10906.0859  10906.0859  10703.2334  10794.8447  10906.0859  10906.0859   7147.8477  33577.0781  83977.5859  83977.5859  83977.5859  83977.5859  83977.5859  83977.5859  31970.2539      0.0000    343.0285   5425.5664  18858.9414  19057.1367   5534.1919      0.0000      0.0000      0.0000      0.0000      0.0000      0.0000      0.0000      0.0000      0.0000      0.0000      0.0000      0.0000      0.0000      0.0000      0.0000      0.0000      0.0000      0.0000      0.0000      0.0000      0.0000      0.0000      0.0000      0.0000      0.0000      0.0000      0.0000      0.0000      0.0000      0.0000
      0.0000      0.0000      0.0000      0.0000      0.0000      0.0000      0.0000      0.0000      0.0000      0.0000      0.0000      0.0000      0.0000      0.0000      0.0000      0.0000      0.0000      0.0000      0.0000      0.0000      0.0000      0.0000      0.0000    742.7043  10834.1074  10116.4834   8682.3340   4713.6104   5891.4663   6843.5693   3267.4626    475.5052    201.5461  58406.3867  83977.5859  83977.5859  83977.5859  83977.5859  83977.5859  13931.8779      0.0000      0.0000      0.0000  14182.3223  18879.9062   2063.8894      0.0000      0.0000      0.0000      0.0000      0.0000      0.0000      0.0000      0.0000      0.0000      0.0000      0.0000      0.0000      0.0000      0.0000      0.0000      0.0000      0.0000      0.0000      0.0000      0.0000      0.0000      0.0000      0.0000      0.0000      0.0000      0.0000      0.0000      0.0000      0.0000      0.0000
      0.0000      0.0000      0.0000      0.0000      0.0000      0.0000      0.0000      0.0000      0.0000      0.0000      0.0000      0.0000      0.0000      0.0000      0.0000      0.0000      0.0000      0.0000      0.0000      0.0000      0.0000      0.0000      0.0000      0.0000   2697.0752    254.1118      0.0000      0.0000      0.0000      0.0000      0.0000      0.0000      0.0000   8473.3350  46061.6875  76570.7500  83977.5859  83977.5859  72791.7422    201.5461      0.0000      0.0000      0.0000      0.0000   3849.5420      0.0000      0.0000      0.0000      0.0000      0.0000      0.0000      0.0000      0.0000      0.0000      0.0000      0.0000      0.0000      0.0000      0.0000      0.0000      0.0000      0.0000      0.0000      0.0000      0.0000      0.0000      0.0000      0.0000      0.0000      0.0000      0.0000      0.0000      0.0000      0.0000      0.0000      0.0000
      0.0000      0.0000      0.0000      0.0000      0.0000      0.0000      0.0000      0.0000      0.0000      0.0000      0.0000      0.0000      0.0000      0.0000      0.0000      0.0000      0.0000      0.0000      0.0000      0.0000      0.0000      0.0000      0.0000      0.0000      0.0000      0.0000      0.0000      0.0000      0.0000      0.0000      0.0000      0.0000      0.0000      0.0000      0.0000  35975.9766  83977.5859  71464.8906   6827.3765      0.0000      0.0000      0.0000      0.0000      0.0000      0.0000      0.0000      0.0000      0.0000      0.0000      0.0000      0.0000      0.0000      0.0000      0.0000      0.0000      0.0000      0.0000      0.0000      0.0000      0.0000      0.0000      0.0000      0.0000      0.0000      0.0000      0.0000      0.0000      0.0000      0.0000      0.0000      0.0000      0.0000      0.0000      0.0000      0.0000      0.0000
      0.0000      0.0000      0.0000      0.0000      0.0000      0.0000      0.0000      0.0000      0.0000      0.0000      0.0000      0.0000      0.0000      0.0000      0.0000      0.0000      0.0000      0.0000      0.0000      0.0000      0.0000      0.0000      0.0000      0.0000      0.0000      0.0000      0.0000      0.0000      0.0000      0.0000      0.0000      0.0000      0.0000      0.0000      0.0000    302.3192  19944.6738   5676.8813      0.0000      0.0000      0.0000      0.0000      0.0000      0.0000      0.0000      0.0000      0.0000      0.0000      0.0000      0.0000      0.0000      0.0000      0.0000      0.0000      0.0000      0.0000      0.0000      0.0000      0.0000      0.0000      0.0000      0.0000      0.0000      0.0000      0.0000      0.0000      0.0000      0.0000      0.0000      0.0000      0.0000      0.0000      0.0000      0.0000      0.0000      0.0000
      0.0000      0.0000      0.0000      0.0000      0.0000      0.0000      0.0000      0.0000      0.0000      0.0000      0.0000      0.0000      0.0000      0.0000      0.0000      0.0000      0.0000      0.0000      0.0000      0.0000      0.0000      0.0000      0.0000      0.0000      0.0000      0.0000      0.0000      0.0000      0.0000      0.0000      0.0000      0.0000      0.0000      0.0000      0.0000      0.0000      0.0000      0.0000      0.0000      0.0000      0.0000      0.0000      0.0000      0.0000      0.0000      0.0000      0.0000      0.0000      0.0000      0.0000      0.0000      0.0000      0.0000      0.0000      0.0000      0.0000      0.0000      0.0000      0.0000      0.0000      0.0000      0.0000      0.0000      0.0000      0.0000      0.0000      0.0000      0.0000      0.0000      0.0000      0.0000      0.0000      0.0000      0.0000      0.0000      0.0000
      0.0000      0.0000      0.0000      0.0000      0.0000      0.0000      0.0000      0.0000      0.0000      0.0000      0.0000      0.0000      0.0000      0.0000      0.0000      0.0000      0.0000      0.0000      0.0000      0.0000      0.0000      0.0000      0.0000      0.0000      0.0000      0.0000      0.0000      0.0000      0.0000      0.0000      0.0000      0.0000      0.0000      0.0000      0.0000      0.0000      0.0000      0.0000      0.0000      0.0000      0.0000      0.0000      0.0000      0.0000      0.0000      0.0000      0.0000      0.0000      0.0000      0.0000      0.0000      0.0000      0.0000      0.0000      0.0000      0.0000      0.0000      0.0000      0.0000      0.0000      0.0000      0.0000      0.0000      0.0000      0.0000      0.0000      0.0000      0.0000      0.0000      0.0000      0.0000      0.0000      0.0000      0.0000      0.0000      0.0000
      0.0000      0.0000      0.0000      0.0000      0.0000      0.0000      0.0000      0.0000      0.0000      0.0000      0.0000      0.0000      0.0000      0.0000      0.0000      0.0000      0.0000      0.0000      0.0000      0.0000      0.0000      0.0000      0.0000      0.0000      0.0000      0.0000      0.0000      0.0000      0.0000      0.0000      0.0000      0.0000      0.0000      0.0000      0.0000      0.0000      0.0000      0.0000      0.0000      0.0000      0.0000      0.0000      0.0000      0.0000      0.0000      0.0000      0.0000      0.0000      0.0000      0.0000      0.0000      0.0000      0.0000      0.0000      0.0000      0.0000      0.0000      0.0000      0.0000      0.0000      0.0000      0.0000      0.0000      0.0000      0.0000      0.0000      0.0000      0.0000      0.0000      0.0000      0.0000      0.0000      0.0000      0.0000      0.0000      0.0000
      0.0000      0.0000      0.0000      0.0000      0.0000      0.0000      0.0000      0.0000      0.0000      0.0000      0.0000      0.0000      0.0000      0.0000      0.0000      0.0000      0.0000      0.0000      0.0000      0.0000      0.0000      0.0000      0.0000      0.0000      0.0000      0.0000      0.0000      0.0000      0.0000      0.0000      0.0000      0.0000      0.0000      0.0000      0.0000      0.0000      0.0000      0.0000      0.0000      0.0000      0.0000      0.0000      0.0000      0.0000      0.0000      0.0000      0.0000      0.0000      0.0000      0.0000      0.0000      0.0000      0.0000      0.0000      0.0000      0.0000      0.0000      0.0000      0.0000      0.0000      0.0000      0.0000      0.0000      0.0000      0.0000      0.0000      0.0000      0.0000      0.0000      0.0000      0.0000      0.0000      0.0000      0.0000      0.0000      0.0000
      0.0000      0.0000      0.0000      0.0000      0.0000      0.0000      0.0000      0.0000      0.0000      0.0000      0.0000      0.0000      0.0000      0.0000      0.0000      0.0000      0.0000      0.0000      0.0000      0.0000      0.0000      0.0000      0.0000      0.0000      0.0000      0.0000      0.0000      0.0000      0.0000      0.0000      0.0000      0.0000      0.0000      0.0000      0.0000      0.0000      0.0000      0.0000      0.0000      0.0000      0.0000      0.0000      0.0000      0.0000      0.0000      0.0000      0.0000      0.0000      0.0000      0.0000      0.0000      0.0000      0.0000      0.0000      0.0000      0.0000      0.0000      0.0000      0.0000      0.0000      0.0000      0.0000      0.0000      0.0000      0.0000      0.0000      0.0000      0.0000      0.0000      0.0000      0.0000      0.0000      0.0000      0.0000      0.0000      0.0000
      0.0000      0.0000      0.0000      0.0000      0.0000      0.0000      0.0000      0.0000      0.0000      0.0000      0.0000      0.0000      0.0000      0.0000      0.0000      0.0000      0.0000      0.0000      0.0000      0.0000      0.0000      0.0000      0.0000      0.0000      0.0000      0.0000      0.0000      0.0000      0.0000      0.0000      0.0000      0.0000      0.0000      0.0000      0.0000      0.0000      0.0000      0.0000      0.0000      0.0000      0.0000      0.0000      0.0000      0.0000      0.0000      0.0000      0.0000      0.0000      0.0000      0.0000      0.0000      0.0000      0.0000      0.0000      0.0000      0.0000      0.0000      0.0000      0.0000      0.0000      0.0000      0.0000      0.0000      0.0000      0.0000      0.0000      0.0000      0.0000      0.0000      0.0000      0.0000      0.0000      0.0000      0.0000      0.0000      0.0000
      0.0000      0.0000      0.0000      0.0000      0.0000      0.0000      0.0000      0.0000      0.0000      0.0000      0.0000      0.0000      0.0000      0.0000      0.0000      0.0000      0.0000      0.0000      0.0000      0.0000      0.0000      0.0000      0.0000      0.0000      0.0000      0.0000      0.0000      0.0000      0.0000      0.0000      0.0000      0.0000      0.0000      0.0000      0.0000      0.0000      0.0000      0.0000      0.0000      0.0000      0.0000      0.0000      0.0000      0.0000      0.0000      0.0000      0.0000      0.0000      0.0000      0.0000      0.0000      0.0000      0.0000      0.0000      0.0000      0.0000      0.0000      0.0000      0.0000      0.0000      0.0000      0.0000      0.0000      0.0000      0.0000      0.0000      0.0000      0.0000      0.0000      0.0000      0.0000      0.0000      0.0000      0.0000      0.0000      0.0000
[...]
      0.0000      0.0000      0.0000      0.0000      0.0000      0.0000      0.0000      0.0000      0.0000      0.0000      0.0000      0.0000      0.0000      0.0000      0.0000      0.0000      0.0000      0.0000      0.0000      0.0000      0.0000      0.0000      0.0000      0.0000      0.0000  11530.7324    103.5075      0.0000   4029.8918  36237.6094  19447.5898      0.0000      0.0000      0.0000      0.0000      0.0000      0.0000      0.0000      0.0000      0.0000      0.0000      0.0000      0.0000      0.0000      0.0000      0.0000      0.0000      0.0000      0.0000      0.0000      0.0000      0.0000      0.0000      0.0000      0.0000      0.0000      0.0000      0.0000      0.0000      0.0000      0.0000      0.0000      0.0000      0.0000      0.0000      0.0000      0.0000      0.0000      0.0000      0.0000      0.0000      0.0000      0.0000      0.0000      0.0000      0.0000
      0.0000      0.0000      0.0000      0.0000      0.0000      0.0000      0.0000      0.0000      0.0000      0.0000      0.0000      0.0000      0.0000      0.0000      0.0000      0.0000      0.0000      0.0000      0.0000      0.0000      0.0000      0.0000      0.0000      0.0000      0.0000      0.0000      0.0000      0.0000      0.0000   6128.8169  15877.4062      0.0000      0.0000      0.0000      0.0000      0.0000      0.0000      0.0000      0.0000      0.0000      0.0000      0.0000      0.0000      0.0000      0.0000      0.0000      0.0000      0.0000      0.0000      0.0000      0.0000      0.0000      0.0000      0.0000      0.0000      0.0000      0.0000      0.0000      0.0000      0.0000      0.0000      0.0000      0.0000      0.0000      0.0000      0.0000      0.0000      0.0000      0.0000      0.0000      0.0000      0.0000      0.0000      0.0000      0.0000      0.0000
      0.0000      0.0000      0.0000      0.0000      0.0000      0.0000      0.0000      0.0000      0.0000      0.0000      0.0000      0.0000      0.0000      0.0000      0.0000      0.0000      0.0000      0.0000      0.0000      0.0000      0.0000      0.0000      0.0000      0.0000      0.0000      0.0000      0.0000      0.0000      0.0000      0.0000   1408.2393      0.0000      0.0000      0.0000      0.0000      0.0000      0.0000      0.0000      0.0000      0.0000      0.0000      0.0000      0.0000      0.0000      0.0000      0.0000      0.0000      0.0000      0.0000      0.0000      0.0000      0.0000      0.0000      0.0000      0.0000      0.0000      0.0000      0.0000      0.0000      0.0000      0.0000      0.0000      0.0000      0.0000      0.0000      0.0000      0.0000      0.0000      0.0000      0.0000      0.0000      0.0000      0.0000      0.0000      0.0000      0.0000
      0.0000      0.0000      0.0000      0.0000      0.0000      0.0000      0.0000      0.0000      0.0000      0.0000      0.0000      0.0000      0.0000      0.0000      0.0000      0.0000      0.0000      0.0000      0.0000      0.0000      0.0000      0.0000      0.0000      0.0000      0.0000      0.0000      0.0000      0.0000      0.0000      0.0000      0.0000      0.0000      0.0000      0.0000      0.0000      0.0000      0.0000      0.0000      0.0000      0.0000      0.0000      0.0000      0.0000      0.0000      0.0000      0.0000      0.0000      0.0000      0.0000      0.0000      0.0000      0.0000      0.0000      0.0000      0.0000      0.0000      0.0000      0.0000      0.0000      0.0000      0.0000      0.0000      0.0000      0.0000      0.0000      0.0000      0.0000      0.0000      0.0000      0.0000      0.0000      0.0000      0.0000      0.0000      0.0000      0.0000
      0.0000      0.0000      0.0000      0.0000      0.0000      0.0000      0.0000      0.0000      0.0000      0.0000      0.0000      0.0000      0.0000      0.0000      0.0000      0.0000      0.0000      0.0000      0.0000      0.0000      0.0000      0.0000      0.0000      0.0000      0.0000      0.0000      0.0000      0.0000      0.0000      0.0000      0.0000      0.0000      0.0000      0.0000      0.0000      0.0000      0.0000      0.0000      0.0000      0.0000      0.0000      0.0000      0.0000      0.0000      0.0000      0.0000      0.0000      0.0000      0.0000      0.0000      0.0000      0.0000      0.0000      0.0000      0.0000      0.0000      0.0000      0.0000      0.0000      0.0000      0.0000      0.0000      0.0000      0.0000      0.0000      0.0000      0.0000      0.0000      0.0000      0.0000      0.0000      0.0000      0.0000      0.0000      0.0000      0.0000
      0.0000      0.0000      0.0000      0.0000      0.0000      0.0000      0.0000      0.0000      0.0000      0.0000      0.0000      0.0000      0.0000      0.0000      0.0000      0.0000      0.0000      0.0000      0.0000      0.0000      0.0000      0.0000      0.0000      0.0000      0.0000      0.0000      0.0000      0.0000      0.0000      0.0000      0.0000      0.0000      0.0000      0.0000      0.0000      0.0000      0.0000      0.0000      0.0000      0.0000      0.0000      0.0000      0.0000      0.0000      0.0000      0.0000      0.0000      0.0000      0.0000      0.0000      0.0000      0.0000      0.0000      0.0000      0.0000      0.0000      0.0000      0.0000      0.0000      0.0000      0.0000      0.0000      0.0000      0.0000      0.0000      0.0000      0.0000      0.0000      0.0000      0.0000      0.0000      0.0000      0.0000      0.0000      0.0000      0.0000
      0.0000      0.0000      0.0000      0.0000      0.0000      0.0000      0.0000      0.0000      0.0000      0.0000      0.0000      0.0000      0.0000      0.0000      0.0000      0.0000      0.0000      0.0000      0.0000      0.0000      0.0000      0.0000      0.0000      0.0000      0.0000      0.0000      0.0000      0.0000      0.0000      0.0000      0.0000      0.0000      0.0000      0.0000      0.0000      0.0000      0.0000      0.0000      0.0000      0.0000      0.0000      0.0000      0.0000      0.0000      0.0000      0.0000      0.0000      0.0000      0.0000      0.0000      0.0000      0.0000      0.0000      0.0000      0.0000      0.0000      0.0000      0.0000      0.0000      0.0000      0.0000      0.0000      0.0000      0.0000      0.0000      0.0000      0.0000      0.0000      0.0000      0.0000      0.0000      0.0000      0.0000      0.0000      0.0000      0.0000
      0.0000      0.0000      0.0000      0.0000      0.0000      0.0000      0.0000      0.0000      0.0000      0.0000      0.0000      0.0000      0.0000      0.0000      0.0000      0.0000      0.0000      0.0000      0.0000      0.0000      0.0000      0.0000      0.0000      0.0000      0.0000      0.0000      0.0000      0.0000      0.0000      0.0000      0.0000      0.0000      0.0000      0.0000      0.0000      0.0000      0.0000      0.0000      0.0000      0.0000      0.0000      0.0000      0.0000      0.0000      0.0000      0.0000      0.0000      0.0000      0.0000      0.0000      0.0000      0.0000      0.0000      0.0000      0.0000      0.0000      0.0000      0.0000      0.0000      0.0000      0.0000      0.0000      0.0000      0.0000      0.0000      0.0000      0.0000      0.0000      0.0000      0.0000      0.0000      0.0000      0.0000      0.0000      0.0000      0.0000
      0.0000      0.0000      0.0000      0.0000      0.0000      0.0000      0.0000      0.0000      0.0000      0.0000      0.0000      0.0000      0.0000      0.0000      0.0000      0.0000      0.0000      0.0000      0.0000      0.0000      0.0000      0.0000      0.0000      0.0000      0.0000      0.0000      0.0000      0.0000      0.0000      0.0000      0.0000      0.0000      0.0000      0.0000      0.0000      0.0000      0.0000      0.0000      0.0000      0.0000      0.0000      0.0000      0.0000      0.0000      0.0000      0.0000      0.0000      0.0000      0.0000      0.0000      0.0000      0.0000      0.0000      0.0000      0.0000      0.0000      0.0000      0.0000      0.0000      0.0000      0.0000      0.0000      0.0000      0.0000      0.0000      0.0000      0.0000      0.0000      0.0000      0.0000      0.0000      0.0000      0.0000      0.0000      0.0000      0.0000
      0.0000      0.0000      0.0000      0.0000      0.0000      0.0000      0.0000      0.0000      0.0000      0.0000      0.0000      0.0000      0.0000      0.0000      0.0000      0.0000      0.0000      0.0000      0.0000      0.0000      0.0000      0.0000      0.0000      0.0000      0.0000      0.0000      0.0000      0.0000      0.0000      0.0000      0.0000      0.0000      0.0000      0.0000      0.0000      0.0000      0.0000      0.0000      0.0000      0.0000      0.0000      0.0000      0.0000      0.0000      0.0000      0.0000      0.0000      0.0000      0.0000      0.0000      0.0000      0.0000      0.0000      0.0000      0.0000      0.0000      0.0000      0.0000      0.0000      0.0000      0.0000      0.0000      0.0000      0.0000      0.0000      0.0000      0.0000      0.0000      0.0000      0.0000      0.0000      0.0000      0.0000      0.0000      0.0000      0.0000
      0.0000      0.0000      0.0000      0.0000      0.0000      0.0000      0.0000      0.0000      0.0000      0.0000      0.0000      0.0000      0.0000      0.0000      0.0000      0.0000      0.0000      0.0000      0.0000      0.0000      0.0000      0.0000      0.0000      0.0000      0.0000      0.0000      0.0000      0.0000      0.0000      0.0000      0.0000      0.0000      0.0000      0.0000      0.0000      0.0000      0.0000      0.0000      0.0000      0.0000      0.0000      0.0000      0.0000      0.0000      0.0000      0.0000      0.0000      0.0000      0.0000      0.0000      0.0000      0.0000      0.0000      0.0000      0.0000      0.0000      0.0000      0.0000      0.0000      0.0000      0.0000      0.0000      0.0000      0.0000      0.0000      0.0000      0.0000      0.0000      0.0000      0.0000      0.0000      0.0000      0.0000      0.0000      0.0000      0.0000
      0.0000      0.0000      0.0000      0.0000      0.0000      0.0000      0.0000      0.0000      0.0000      0.0000      0.0000      0.0000      0.0000      0.0000      0.0000      0.0000      0.0000      0.0000      0.0000      0.0000      0.0000      0.0000      0.0000      0.0000      0.0000      0.0000      0.0000      0.0000      0.0000      0.0000      0.0000      0.0000      0.0000      0.0000      0.0000      0.0000      0.0000      0.0000      0.0000      0.0000      0.0000      0.0000      0.0000      0.0000      0.0000      0.0000      0.0000      0.0000      0.0000      0.0000      0.0000      0.0000      0.0000      0.0000      0.0000      0.0000      0.0000      0.0000      0.0000      0.0000      0.0000      0.0000      0.0000      0.0000      0.0000      0.0000      0.0000      0.0000      0.0000      0.0000      0.0000      0.0000      0.0000      0.0000      0.0000      0.0000
      0.0000      0.0000      0.0000      0.0000      0.0000      0.0000      0.0000      0.0000      0.0000      0.0000      0.0000      0.0000      0.0000      0.0000      0.0000      0.0000      0.0000      0.0000      0.0000      0.0000      0.0000      0.0000      0.0000      0.0000      0.0000      0.0000      0.0000      0.0000      0.0000      0.0000      0.0000      0.0000      0.0000      0.0000      0.0000      0.0000      0.0000      0.0000      0.0000      0.0000      0.0000      0.0000      0.0000      0.0000      0.0000      0.0000      0.0000      0.0000      0.0000      0.0000      0.0000      0.0000      0.0000      0.0000      0.0000      0.0000      0.0000      0.0000      0.0000      0.0000      0.0000      0.0000      0.0000      0.0000      0.0000      0.0000      0.0000      0.0000      0.0000      0.0000      0.0000      0.0000      0.0000      0.0000      0.0000      0.0000
      0.0000      0.0000      0.0000      0.0000      0.0000      0.0000      0.0000      0.0000      0.0000      0.0000      0.0000      0.0000      0.0000      0.0000      0.0000      0.0000      0.0000      0.0000      0.0000      0.0000      0.0000      0.0000      0.0000      0.0000      0.0000      0.0000      0.0000      0.0000      0.0000      0.0000      0.0000      0.0000      0.0000      0.0000      0.0000      0.0000      0.0000      0.0000      0.0000      0.0000      0.0000      0.0000      0.0000      0.0000      0.0000      0.0000      0.0000      0.0000      0.0000      0.0000      0.0000      0.0000      0.0000      0.0000      0.0000      0.0000      0.0000      0.0000      0.0000      0.0000      0.0000      0.0000      0.0000      0.0000      0.0000      0.0000      0.0000      0.0000      0.0000      0.0000      0.0000      0.0000      0.0000      0.0000      0.0000      0.0000
      0.0000      0.0000      0.0000      0.0000      0.0000      0.0000      0.0000      0.0000      0.0000      0.0000      0.0000      0.0000      0.0000      0.0000      0.0000      0.0000      0.0000      0.0000      0.0000      0.0000      0.0000      0.0000      0.0000      0.0000      0.0000      0.0000      0.0000      0.0000      0.0000      0.0000      0.0000      0.0000      0.0000      0.0000      0.0000      0.0000      0.0000      0.0000      0.0000      0.0000      0.0000      0.0000      0.0000      0.0000      0.0000      0.0000      0.0000      0.0000      0.0000      0.0000      0.0000      0.0000      0.0000      0.0000      0.0000      0.0000      0.0000      0.0000      0.0000      0.0000      0.0000      0.0000      0.0000      0.0000      0.0000      0.0000      0.0000      0.0000      0.0000      0.0000      0.0000      0.0000      0.0000      0.0000      0.0000      0.0000
      0.0000      0.0000      0.0000      0.0000      0.0000      0.0000      0.0000      0.0000      0.0000      0.0000      0.0000      0.0000      0.0000      0.0000      0.0000      0.0000      0.0000      0.0000      0.0000      0.0000      0.0000      0.0000      0.0000      0.0000      0.0000      0.0000      0.0000      0.0000      0.0000      0.0000      0.0000      0.0000      0.0000      0.0000      0.0000      0.0000      0.0000      0.0000      0.0000      0.0000      0.0000      0.0000      0.0000      0.0000      0.0000      0.0000      0.0000      0.0000      0.0000      0.0000      0.0000      0.0000      0.0000      0.0000      0.0000      0.0000      0.0000      0.0000      0.0000      0.0000      0.0000      0.0000      0.0000      0.0000      0.0000      0.0000      0.0000      0.0000      0.0000      0.0000      0.0000      0.0000      0.0000      0.0000      0.0000      0.0000
      0.0000      0.0000      0.0000      0.0000      0.0000      0.0000      0.0000      0.0000      0.0000      0.0000      0.0000      0.0000      0.0000      0.0000      0.0000      0.0000      0.0000      0.0000      0.0000      0.0000      0.0000      0.0000      0.0000      0.0000      0.0000      0.0000      0.0000      0.0000      0.0000      0.0000      0.0000      0.0000      0.0000      0.0000      0.0000      0.0000      0.0000      0.0000      0.0000      0.0000      0.0000      0.0000      0.0000      0.0000      0.0000      0.0000      0.0000      0.0000      0.0000      0.0000      0.0000      0.0000      0.0000      0.0000      0.0000      0.0000      0.0000      0.0000      0.0000      0.0000      0.0000      0.0000      0.0000      0.0000      0.0000      0.0000      0.0000      0.0000      0.0000      0.0000      0.0000      0.0000      0.0000      0.0000      0.0000      0.0000
      0.0000      0.0000      0.0000      0.0000      0.0000      0.0000      0.0000      0.0000      0.0000      0.0000      0.0000      0.0000      0.0000      0.0000      0.0000      0.0000      0.0000      0.0000      0.0000      0.0000      0.0000      0.0000      0.0000      0.0000      0.0000      0.0000      0.0000      0.0000      0.0000      0.0000      0.0000      0.0000      0.0000      0.0000      0.0000      0.0000      0.0000      0.0000      0.0000      0.0000      0.0000      0.0000      0.0000      0.0000      0.0000      0.0000      0.0000      0.0000      0.0000      0.0000      0.0000      0.0000      0.0000      0.0000      0.0000      0.0000      0.0000      0.0000      0.0000      0.0000      0.0000      0.0000      0.0000      0.0000      0.0000      0.0000      0.0000      0.0000      0.0000      0.0000      0.0000      0.0000      0.0000      0.0000      0.0000      0.0000
      0.0000      0.0000      0.0000      0.0000      0.0000      0.0000      0.0000      0.0000      0.0000      0.0000      0.0000      0.0000      0.0000      0.0000      0.0000      0.0000      0.0000      0.0000      0.0000      0.0000      0.0000      0.0000      0.0000      0.0000      0.0000      0.0000      0.0000      0.0000      0.0000      0.0000      0.0000      0.0000      0.0000      0.0000      0.0000      0.0000      0.0000      0.0000      0.0000      0.0000      0.0000      0.0000      0.0000      0.0000      0.0000      0.0000      0.0000      0.0000      0.0000      0.0000      0.0000      0.0000      0.0000      0.0000      0.0000      0.0000      0.0000      0.0000      0.0000      0.0000      0.0000      0.0000      0.0000      0.0000      0.0000      0.0000      0.0000      0.0000      0.0000      0.0000      0.0000      0.0000      0.0000      0.0000      0.0000      0.0000
      0.0000      0.0000      0.0000      0.0000      0.0000      0.0000      0.0000      0.0000      0.0000      0.0000      0.0000      0.0000      0.0000      0.0000      0.0000      0.0000      0.0000      0.0000      0.0000      0.0000      0.0000      0.0000      0.0000      0.0000      0.0000      0.0000      0.0000      0.0000      0.0000      0.0000      0.0000      0.0000      0.0000      0.0000      0.0000      0.0000      0.0000      0.0000      0.0000      0.0000      0.0000      0.0000      0.0000      0.0000      0.0000      0.0000      0.0000      0.0000      0.0000      0.0000      0.0000      0.0000      0.0000      0.0000      0.0000      0.0000      0.0000      0.0000      0.0000      0.0000      0.0000      0.0000      0.0000      0.0000      0.0000      0.0000      0.0000      0.0000      0.0000      0.0000      0.0000      0.0000      0.0000      0.0000      0.0000      0.0000
      0.0000      0.0000      0.0000      0.0000      0.0000      0.0000      0.0000      0.0000      0.0000      0.0000      0.0000      0.0000      0.0000      0.0000      0.0000      0.0000      0.0000      0.0000      0.0000      0.0000      0.0000      0.0000      0.0000      0.0000      0.0000      0.0000      0.0000      0.0000      0.0000      0.0000      0.0000      0.0000      0.0000      0.0000      0.0000      0.0000      0.0000      0.0000      0.0000      0.0000      0.0000      0.0000      0.0000      0.0000      0.0000      0.0000      0.0000      0.0000      0.0000      0.0000      0.0000      0.0000      0.0000      0.0000      0.0000      0.0000      0.0000      0.0000      0.0000      0.0000      0.0000      0.0000      0.0000      0.0000      0.0000      0.0000      0.0000      0.0000      0.0000      0.0000      0.0000      0.0000      0.0000      0.0000      0.0000      0.0000
 
