 Groundwater/Surface Water exchange (m3/day)
 for each APEX subarea
 --Calculated from MODFLOW River Package--
 Positive: Volume entering stream from the aquifer
 Negative: Volume seeps from stream to the aquifer
 
 Day:           1
 Daily GW/SW Exchange for each Subarea
 Aquifer/Stream       Drain/Stream
  0.0000000E+00  0.0000000E+00
  0.0000000E+00  0.0000000E+00
  0.0000000E+00  0.0000000E+00
  0.0000000E+00  0.0000000E+00
  0.0000000E+00  0.0000000E+00
  0.0000000E+00  0.0000000E+00
  0.0000000E+00  0.0000000E+00
  0.0000000E+00  0.0000000E+00
  0.0000000E+00  0.0000000E+00
  0.0000000E+00  0.0000000E+00
  0.0000000E+00  0.0000000E+00
  0.0000000E+00  0.0000000E+00
  0.0000000E+00  0.0000000E+00
  0.0000000E+00  0.0000000E+00
  0.0000000E+00  0.0000000E+00
  0.0000000E+00  0.0000000E+00
  0.0000000E+00  0.0000000E+00
  0.0000000E+00  0.0000000E+00
  0.0000000E+00  0.0000000E+00
  0.0000000E+00  0.0000000E+00
  0.0000000E+00  0.0000000E+00
  0.0000000E+00  0.0000000E+00
  0.0000000E+00  0.0000000E+00
  0.0000000E+00  0.0000000E+00
  0.0000000E+00  0.0000000E+00
  0.0000000E+00  0.0000000E+00
  0.0000000E+00  0.0000000E+00
  0.0000000E+00  0.0000000E+00
  0.0000000E+00  0.0000000E+00
  0.0000000E+00  0.0000000E+00
  0.0000000E+00  0.0000000E+00
  0.0000000E+00  0.0000000E+00
  0.0000000E+00  0.0000000E+00
  0.0000000E+00  0.0000000E+00
  0.0000000E+00  0.0000000E+00
  0.0000000E+00  0.0000000E+00
  0.0000000E+00  0.0000000E+00
  0.0000000E+00  0.0000000E+00
  0.0000000E+00  0.0000000E+00
  0.0000000E+00  0.0000000E+00
  0.0000000E+00  0.0000000E+00
  0.0000000E+00  0.0000000E+00
  0.0000000E+00  0.0000000E+00
   456.1949      0.0000000E+00
  0.0000000E+00  0.0000000E+00
  0.0000000E+00  0.0000000E+00
  0.0000000E+00  0.0000000E+00
  0.0000000E+00  0.0000000E+00
  0.0000000E+00  0.0000000E+00
  0.0000000E+00  0.0000000E+00
  0.0000000E+00  0.0000000E+00
  0.0000000E+00  0.0000000E+00
  0.0000000E+00  0.0000000E+00
  0.0000000E+00  0.0000000E+00
  0.0000000E+00  0.0000000E+00
  0.0000000E+00  0.0000000E+00
  0.0000000E+00  0.0000000E+00
  0.0000000E+00  0.0000000E+00
  0.0000000E+00  0.0000000E+00
  0.0000000E+00  0.0000000E+00
  0.0000000E+00  0.0000000E+00
  0.0000000E+00  0.0000000E+00
  0.0000000E+00  0.0000000E+00
  0.0000000E+00  0.0000000E+00
  0.0000000E+00  0.0000000E+00
  0.0000000E+00  0.0000000E+00
  0.0000000E+00  0.0000000E+00
  0.0000000E+00  0.0000000E+00
  0.0000000E+00  0.0000000E+00
  0.0000000E+00  0.0000000E+00
  0.0000000E+00  0.0000000E+00
  0.0000000E+00  0.0000000E+00
  0.0000000E+00  0.0000000E+00
  0.0000000E+00  0.0000000E+00
  0.0000000E+00  0.0000000E+00
 
 Day:         100
 Daily GW/SW Exchange for each Subarea
 Aquifer/Stream       Drain/Stream
  0.0000000E+00  0.0000000E+00
  0.0000000E+00  0.0000000E+00
  0.0000000E+00  0.0000000E+00
  0.0000000E+00  0.0000000E+00
  0.0000000E+00  0.0000000E+00
  0.0000000E+00  0.0000000E+00
  0.0000000E+00  0.0000000E+00
  0.0000000E+00  0.0000000E+00
  0.0000000E+00  0.0000000E+00
  0.0000000E+00  0.0000000E+00
  0.0000000E+00  0.0000000E+00
  0.0000000E+00  0.0000000E+00
  0.0000000E+00  0.0000000E+00
  0.0000000E+00  0.0000000E+00
  -1.970017      0.0000000E+00
  -1.563095      0.0000000E+00
  -9.443923      0.0000000E+00
  -25.33898      0.0000000E+00
  -268.5129      0.0000000E+00
  -449.0191      0.0000000E+00
  -404.1002      0.0000000E+00
  -405.0270      0.0000000E+00
  -17791.38      0.0000000E+00
  -481.0556      0.0000000E+00
   535.1157      0.0000000E+00
  -52.40717      0.0000000E+00
   943.1423      0.0000000E+00
  -47.89826      0.0000000E+00
  -3595.116      0.0000000E+00
  -263.7791      0.0000000E+00
  -3303.144      0.0000000E+00
  -1228.837      0.0000000E+00
  -1896.367      0.0000000E+00
  -245.4320      0.0000000E+00
  -779.4440      0.0000000E+00
  -1331.652      0.0000000E+00
  -30.22116      0.0000000E+00
  -419.0675      0.0000000E+00
  -13012.65      0.0000000E+00
 -0.2036075      0.0000000E+00
   82.80761      0.0000000E+00
  -196.9872      0.0000000E+00
  -1765.305      0.0000000E+00
   12952.92      0.0000000E+00
  -72.65585      0.0000000E+00
  -8279.639      0.0000000E+00
  -185.0686      0.0000000E+00
  -2473.338      0.0000000E+00
  -104.2087      0.0000000E+00
  -760.6553      0.0000000E+00
  -18972.34      0.0000000E+00
  -11982.96      0.0000000E+00
  -423.3274      0.0000000E+00
  -151.1770      0.0000000E+00
  -11586.30      0.0000000E+00
  -6330.721      0.0000000E+00
  -2932.339      0.0000000E+00
  -8545.289      0.0000000E+00
  -1662.997      0.0000000E+00
  -2.114686      0.0000000E+00
  -1.063856      0.0000000E+00
  -233.9217      0.0000000E+00
   34.85738      0.0000000E+00
   373.6368      0.0000000E+00
  -515.8380      0.0000000E+00
   24.61852      0.0000000E+00
   385.7527      0.0000000E+00
   48.74448      0.0000000E+00
   69.14750      0.0000000E+00
  -5.250982      0.0000000E+00
  -1035.240      0.0000000E+00
  -371.7420      0.0000000E+00
 -0.2777853      0.0000000E+00
  -593.9576      0.0000000E+00
  -3799.497      0.0000000E+00
