 MODFLOW River Stage (L) (for each River Cell)
 --Calculated from APEX Channel Depth--
 
 Day:           1
 Channel depth for each MODFLOW River Cell
  0.0000000E+00
  0.0000000E+00
  0.0000000E+00
  0.0000000E+00
  0.0000000E+00
  0.0000000E+00
  0.0000000E+00
  0.0000000E+00
  0.0000000E+00
  0.0000000E+00
  0.0000000E+00
  0.0000000E+00
  0.0000000E+00
  0.0000000E+00
  0.0000000E+00
  0.0000000E+00
  0.0000000E+00
  0.0000000E+00
  0.0000000E+00
  0.0000000E+00
  0.0000000E+00
  0.0000000E+00
  0.0000000E+00
  0.0000000E+00
  0.0000000E+00
  0.0000000E+00
  0.0000000E+00
  0.0000000E+00
  0.0000000E+00
  0.0000000E+00
  0.0000000E+00
  0.0000000E+00
  0.0000000E+00
  0.0000000E+00
  0.0000000E+00
  0.0000000E+00
  0.0000000E+00
  0.0000000E+00
  0.0000000E+00
  0.0000000E+00
  0.0000000E+00
  0.0000000E+00
  0.0000000E+00
  0.0000000E+00
  0.0000000E+00
  0.0000000E+00
  0.0000000E+00
  0.0000000E+00
  0.0000000E+00
  0.0000000E+00
  0.0000000E+00
  0.0000000E+00
  0.0000000E+00
  0.0000000E+00
  0.0000000E+00
  0.0000000E+00
  0.0000000E+00
  0.0000000E+00
  0.0000000E+00
  0.0000000E+00
  0.0000000E+00
  0.0000000E+00
  0.0000000E+00
  0.0000000E+00
  0.0000000E+00
  0.0000000E+00
  0.0000000E+00
  0.0000000E+00
  0.0000000E+00
  0.0000000E+00
  0.0000000E+00
  0.0000000E+00
  0.0000000E+00
  0.0000000E+00
  0.0000000E+00
  0.0000000E+00
  0.0000000E+00
  0.0000000E+00
  0.0000000E+00
  0.0000000E+00
  0.0000000E+00
  0.0000000E+00
  0.0000000E+00
  0.0000000E+00
  0.0000000E+00
  0.0000000E+00
  0.0000000E+00
  0.0000000E+00
  0.0000000E+00
  0.0000000E+00
  0.0000000E+00
  0.0000000E+00
  0.0000000E+00
  0.0000000E+00
  0.0000000E+00
  0.0000000E+00
  0.0000000E+00
  0.0000000E+00
  0.0000000E+00
  0.0000000E+00
  0.0000000E+00
  0.0000000E+00
  0.0000000E+00
  0.0000000E+00
  0.0000000E+00
  0.0000000E+00
  0.0000000E+00
  0.0000000E+00
  0.0000000E+00
  0.0000000E+00
  0.0000000E+00
  0.0000000E+00
  0.0000000E+00
  0.0000000E+00
  0.0000000E+00
  0.0000000E+00
  0.0000000E+00
  0.0000000E+00
  0.0000000E+00
  0.0000000E+00
  0.0000000E+00
  0.0000000E+00
  0.0000000E+00
  0.0000000E+00
  0.0000000E+00
  0.0000000E+00
  0.0000000E+00
  0.0000000E+00
  0.0000000E+00
  0.0000000E+00
  0.0000000E+00
  0.0000000E+00
  0.0000000E+00
  0.0000000E+00
  0.0000000E+00
  0.0000000E+00
  0.0000000E+00
  0.0000000E+00
  0.0000000E+00
  0.0000000E+00
  0.0000000E+00
  0.0000000E+00
  0.0000000E+00
  0.0000000E+00
  0.0000000E+00
  0.0000000E+00
  0.0000000E+00
  0.0000000E+00
  0.0000000E+00
  0.0000000E+00
  0.0000000E+00
  0.0000000E+00
  0.0000000E+00
  0.0000000E+00
  0.0000000E+00
  0.0000000E+00
  0.0000000E+00
  0.0000000E+00
  0.0000000E+00
  0.0000000E+00
  0.0000000E+00
  0.0000000E+00
  0.0000000E+00
  0.0000000E+00
  0.0000000E+00
  0.0000000E+00
  0.0000000E+00
  0.0000000E+00
  0.0000000E+00
  0.0000000E+00
  0.0000000E+00
  0.0000000E+00
  0.0000000E+00
  0.0000000E+00
  0.0000000E+00
  0.0000000E+00
  0.0000000E+00
  0.0000000E+00
  0.0000000E+00
  0.0000000E+00
  0.0000000E+00
  0.0000000E+00
  0.0000000E+00
  0.0000000E+00
  0.0000000E+00
  0.0000000E+00
  0.0000000E+00
  0.0000000E+00
  0.0000000E+00
  0.0000000E+00
  0.0000000E+00
  0.0000000E+00
  0.0000000E+00
  0.0000000E+00
  0.0000000E+00
  0.0000000E+00
  0.0000000E+00
  0.0000000E+00
  0.0000000E+00
  0.0000000E+00
  0.0000000E+00
  0.0000000E+00
  0.0000000E+00
  0.0000000E+00
  0.0000000E+00
  0.0000000E+00
  0.0000000E+00
  0.0000000E+00
  0.0000000E+00
  0.0000000E+00
  0.0000000E+00
  0.0000000E+00
  0.0000000E+00
  0.0000000E+00
  0.0000000E+00
  0.0000000E+00
  0.0000000E+00
  0.0000000E+00
  0.0000000E+00
  0.0000000E+00
  0.0000000E+00
  0.0000000E+00
  0.0000000E+00
  0.0000000E+00
  0.0000000E+00
  0.0000000E+00
  0.0000000E+00
  0.0000000E+00
  0.0000000E+00
  0.0000000E+00
  0.0000000E+00
  0.0000000E+00
  0.0000000E+00
  0.0000000E+00
  0.0000000E+00
  0.0000000E+00
  0.0000000E+00
  0.0000000E+00
  0.0000000E+00
  0.0000000E+00
  0.0000000E+00
  0.0000000E+00
  0.0000000E+00
  0.0000000E+00
  0.0000000E+00
  0.0000000E+00
  0.0000000E+00
  0.0000000E+00
  0.0000000E+00
  0.0000000E+00
  0.0000000E+00
  0.0000000E+00
  0.0000000E+00
  0.0000000E+00
  0.0000000E+00
  0.0000000E+00
  0.0000000E+00
  0.0000000E+00
  0.0000000E+00
  0.0000000E+00
  0.0000000E+00
  0.0000000E+00
  0.0000000E+00
  0.0000000E+00
  0.0000000E+00
  0.0000000E+00
  0.0000000E+00
  0.0000000E+00
  0.0000000E+00
  0.0000000E+00
  0.0000000E+00
  0.0000000E+00
  0.0000000E+00
  0.0000000E+00
  0.0000000E+00
  0.0000000E+00
  0.0000000E+00
  0.0000000E+00
  0.0000000E+00
  0.0000000E+00
  0.0000000E+00
  0.0000000E+00
  0.0000000E+00
  0.0000000E+00
  0.0000000E+00
  0.0000000E+00
  0.0000000E+00
  0.0000000E+00
  0.0000000E+00
  0.0000000E+00
  0.0000000E+00
  0.0000000E+00
  0.0000000E+00
  0.0000000E+00
  0.0000000E+00
  0.0000000E+00
  0.0000000E+00
  0.0000000E+00
  0.0000000E+00
  0.0000000E+00
  0.0000000E+00
  0.0000000E+00
  0.0000000E+00
  0.0000000E+00
  0.0000000E+00
  0.0000000E+00
  0.0000000E+00
  0.0000000E+00
  0.0000000E+00
  0.0000000E+00
  0.0000000E+00
  0.0000000E+00
  0.0000000E+00
  0.0000000E+00
  0.0000000E+00
  0.0000000E+00
  0.0000000E+00
  0.0000000E+00
  0.0000000E+00
  0.0000000E+00
  0.0000000E+00
  0.0000000E+00
  0.0000000E+00
  0.0000000E+00
  0.0000000E+00
  0.0000000E+00
  0.0000000E+00
  0.0000000E+00
  0.0000000E+00
  0.0000000E+00
  0.0000000E+00
  0.0000000E+00
  0.0000000E+00
  0.0000000E+00
  0.0000000E+00
  0.0000000E+00
  0.0000000E+00
  0.0000000E+00
  0.0000000E+00
  0.0000000E+00
  0.0000000E+00
  0.0000000E+00
  0.0000000E+00
  0.0000000E+00
  0.0000000E+00
  0.0000000E+00
  0.0000000E+00
  0.0000000E+00
  0.0000000E+00
  0.0000000E+00
  0.0000000E+00
  0.0000000E+00
  0.0000000E+00
  0.0000000E+00
  0.0000000E+00
  0.0000000E+00
  0.0000000E+00
  0.0000000E+00
  0.0000000E+00
  0.0000000E+00
  0.0000000E+00
  0.0000000E+00
  0.0000000E+00
  0.0000000E+00
  0.0000000E+00
  0.0000000E+00
  0.0000000E+00
  0.0000000E+00
  0.0000000E+00
  0.0000000E+00
  0.0000000E+00
  0.0000000E+00
  0.0000000E+00
  0.0000000E+00
  0.0000000E+00
  0.0000000E+00
  0.0000000E+00
  0.0000000E+00
  0.0000000E+00
  0.0000000E+00
  0.0000000E+00
  0.0000000E+00
  0.0000000E+00
  0.0000000E+00
  0.0000000E+00
  0.0000000E+00
  0.0000000E+00
  0.0000000E+00
  0.0000000E+00
  0.0000000E+00
  0.0000000E+00
  0.0000000E+00
  0.0000000E+00
  0.0000000E+00
  0.0000000E+00
  0.0000000E+00
  0.0000000E+00
  0.0000000E+00
  0.0000000E+00
  0.0000000E+00
  0.0000000E+00
  0.0000000E+00
  0.0000000E+00
  0.0000000E+00
  0.0000000E+00
  0.0000000E+00
  0.0000000E+00
  0.0000000E+00
  0.0000000E+00
  0.0000000E+00
  0.0000000E+00
  0.0000000E+00
  0.0000000E+00
  0.0000000E+00
  0.0000000E+00
  0.0000000E+00
  0.0000000E+00
  0.0000000E+00
  0.0000000E+00
  0.0000000E+00
  0.0000000E+00
  0.0000000E+00
  0.0000000E+00
  0.0000000E+00
  0.0000000E+00
  0.0000000E+00
  0.0000000E+00
  0.0000000E+00
  0.0000000E+00
  0.0000000E+00
  0.0000000E+00
  0.0000000E+00
  0.0000000E+00
  0.0000000E+00
  0.0000000E+00
  0.0000000E+00
  0.0000000E+00
  0.0000000E+00
  0.0000000E+00
  0.0000000E+00
  0.0000000E+00
  0.0000000E+00
  0.0000000E+00
  0.0000000E+00
  0.0000000E+00
  0.0000000E+00
  0.0000000E+00
  0.0000000E+00
  0.0000000E+00
  0.0000000E+00
  0.0000000E+00
  0.0000000E+00
  0.0000000E+00
  0.0000000E+00
  0.0000000E+00
  0.0000000E+00
  0.0000000E+00
  0.0000000E+00
  0.0000000E+00
  0.0000000E+00
  0.0000000E+00
  0.0000000E+00
  0.0000000E+00
  0.0000000E+00
  0.0000000E+00
  0.0000000E+00
  0.0000000E+00
  0.0000000E+00
  0.0000000E+00
  0.0000000E+00
  0.0000000E+00
  0.0000000E+00
  0.0000000E+00
  0.0000000E+00
  0.0000000E+00
  0.0000000E+00
  0.0000000E+00
  0.0000000E+00
  0.0000000E+00
  0.0000000E+00
  0.0000000E+00
  0.0000000E+00
  0.0000000E+00
  0.0000000E+00
  0.0000000E+00
  0.0000000E+00
  0.0000000E+00
  0.0000000E+00
  0.0000000E+00
  0.0000000E+00
  0.0000000E+00
  0.0000000E+00
  0.0000000E+00
  0.0000000E+00
  0.0000000E+00
  0.0000000E+00
  0.0000000E+00
  0.0000000E+00
  0.0000000E+00
  0.0000000E+00
  0.0000000E+00
  0.0000000E+00
  0.0000000E+00
  0.0000000E+00
 
 Day:         100
 Channel depth for each MODFLOW River Cell
  0.0000000E+00
  0.0000000E+00
  0.0000000E+00
  0.0000000E+00
  0.0000000E+00
  0.0000000E+00
  0.0000000E+00
  0.0000000E+00
  0.0000000E+00
  0.0000000E+00
  0.0000000E+00
  0.0000000E+00
  0.0000000E+00
  0.0000000E+00
  0.0000000E+00
  0.0000000E+00
  0.0000000E+00
  0.0000000E+00
  0.0000000E+00
  0.0000000E+00
  0.0000000E+00
  0.0000000E+00
  0.0000000E+00
  0.0000000E+00
  0.0000000E+00
  0.0000000E+00
  0.0000000E+00
  0.0000000E+00
  0.0000000E+00
  0.0000000E+00
  0.0000000E+00
  0.0000000E+00
  0.0000000E+00
  0.0000000E+00
  0.0000000E+00
  0.0000000E+00
  0.0000000E+00
  0.0000000E+00
  0.0000000E+00
  0.0000000E+00
  0.0000000E+00
  0.0000000E+00
  0.0000000E+00
  0.0000000E+00
  0.0000000E+00
  0.0000000E+00
  0.0000000E+00
  0.0000000E+00
  0.0000000E+00
  0.0000000E+00
  0.0000000E+00
  0.0000000E+00
  0.0000000E+00
  0.0000000E+00
  0.0000000E+00
  0.0000000E+00
  0.0000000E+00
  0.0000000E+00
  0.0000000E+00
  0.0000000E+00
  0.0000000E+00
  0.0000000E+00
  0.0000000E+00
  0.0000000E+00
  0.0000000E+00
  0.0000000E+00
  0.0000000E+00
  0.0000000E+00
  0.0000000E+00
  0.0000000E+00
  0.0000000E+00
  0.0000000E+00
  0.0000000E+00
  0.0000000E+00
  0.0000000E+00
  0.0000000E+00
  0.0000000E+00
  0.0000000E+00
  0.0000000E+00
  0.0000000E+00
  0.0000000E+00
  0.0000000E+00
  0.0000000E+00
  0.0000000E+00
  0.0000000E+00
  0.0000000E+00
  0.0000000E+00
  0.0000000E+00
  0.0000000E+00
  0.0000000E+00
  0.0000000E+00
  0.0000000E+00
  0.0000000E+00
  0.0000000E+00
  0.0000000E+00
  0.0000000E+00
  0.0000000E+00
  0.0000000E+00
  0.0000000E+00
  0.0000000E+00
  0.0000000E+00
  4.9457080E-03
  0.0000000E+00
  0.0000000E+00
  0.0000000E+00
  0.0000000E+00
  0.0000000E+00
  0.0000000E+00
  0.0000000E+00
  0.0000000E+00
  7.8236889E-03
  1.5529110E-02
  0.0000000E+00
  0.0000000E+00
  0.0000000E+00
  0.0000000E+00
  7.8236889E-03
  3.3108599E-02
  8.6087137E-02
  0.0000000E+00
  7.8236889E-03
  3.3108599E-02
  0.3480915    
  0.3480915    
  0.3480915    
  0.3480915    
  0.1366312    
  0.0000000E+00
  7.8236889E-03
  3.3108599E-02
  2.7858596E-02
  0.3480915    
  0.3480915    
  0.3480915    
  0.3480915    
  0.0000000E+00
  7.8236889E-03
  0.1897642    
  0.3480915    
  7.8236889E-03
  7.8236889E-03
  9.3875341E-02
  7.8236889E-03
  7.8236889E-03
  9.3875341E-02
  7.8236889E-03
  9.3875341E-02
  7.8236889E-03
  9.3875341E-02
  7.8236889E-03
  9.3875341E-02
  7.8236889E-03
  0.0000000E+00
  9.3875341E-02
  7.8236889E-03
  0.0000000E+00
  9.3875341E-02
  0.0000000E+00
  0.0000000E+00
  0.0000000E+00
  2.7066600E-03
  0.1595350    
  0.0000000E+00
  0.0000000E+00
  5.2207034E-02
  0.0000000E+00
  0.0000000E+00
  0.0000000E+00
  0.1863970    
  0.1863970    
  0.0000000E+00
  0.0000000E+00
  0.0000000E+00
  4.9083378E-02
  0.0000000E+00
  0.0000000E+00
  0.0000000E+00
  0.0000000E+00
  0.0000000E+00
  0.0000000E+00
  0.1863970    
  0.1863970    
  0.0000000E+00
  0.0000000E+00
  4.9083378E-02
  0.0000000E+00
  0.0000000E+00
  0.1863970    
  2.4505049E-02
  0.0000000E+00
  3.4859214E-02
  4.9083378E-02
  0.0000000E+00
  0.0000000E+00
  2.8666871E-02
  6.2191412E-03
  4.9083378E-02
  0.0000000E+00
  0.0000000E+00
  2.8666873E-02
  2.1846775E-02
  4.9083378E-02
  0.0000000E+00
  2.8666871E-02
  1.3372467E-02
  4.9083378E-02
  0.0000000E+00
  0.0000000E+00
  2.8666871E-02
  2.8666871E-02
  4.2371750E-02
  0.0000000E+00
  2.8666873E-02
  4.3008834E-02
  0.0000000E+00
  0.0000000E+00
  2.8666871E-02
  4.3008834E-02
  0.0000000E+00
  1.8642811E-02
  4.3008834E-02
  0.0000000E+00
  0.0000000E+00
  0.0000000E+00
  9.6360799E-03
  9.6360799E-03
  6.3581645E-02
  8.9362524E-03
  0.0000000E+00
  0.0000000E+00
  0.0000000E+00
  0.0000000E+00
  9.6360799E-03
  6.7724884E-02
  8.8447727E-02
  0.0000000E+00
  0.0000000E+00
  0.0000000E+00
  0.1000000    
  9.5900245E-02
  0.0000000E+00
  0.0000000E+00
  0.1000000    
  0.0000000E+00
  0.0000000E+00
  0.0000000E+00
  0.1000000    
  0.1000000    
  0.0000000E+00
  0.0000000E+00
  0.1000000    
  0.0000000E+00
  0.0000000E+00
  0.1000000    
  0.0000000E+00
  0.0000000E+00
  0.0000000E+00
  0.0000000E+00
  0.0000000E+00
  0.0000000E+00
  0.1000000    
  0.0000000E+00
  0.0000000E+00
  0.0000000E+00
  0.0000000E+00
  0.1000000    
  0.0000000E+00
  0.0000000E+00
  0.0000000E+00
  0.0000000E+00
  0.0000000E+00
  0.1000000    
  0.0000000E+00
  0.0000000E+00
  0.0000000E+00
  0.0000000E+00
  0.0000000E+00
  0.0000000E+00
  0.1000000    
  0.1000000    
  0.0000000E+00
  0.0000000E+00
  0.0000000E+00
  0.0000000E+00
  0.0000000E+00
  0.0000000E+00
  0.0000000E+00
  0.0000000E+00
  0.1000000    
  0.1000000    
  0.0000000E+00
  0.0000000E+00
  0.0000000E+00
  0.0000000E+00
  0.0000000E+00
  4.2551771E-02
  0.1000000    
  0.0000000E+00
  0.0000000E+00
  0.0000000E+00
  0.0000000E+00
  1.1924690E-02
  4.9577828E-02
  0.0000000E+00
  0.0000000E+00
  0.0000000E+00
  0.1242961    
  8.2788534E-02
  9.4873250E-02
  0.0000000E+00
  0.1242961    
  0.1242961    
  0.1242961    
  0.1242961    
  9.7147584E-02
  0.0000000E+00
  0.1092032    
  0.0000000E+00
  0.1092032    
  0.0000000E+00
  0.1092032    
  0.0000000E+00
  0.0000000E+00
  0.1092032    
  0.1329050    
  0.0000000E+00
  0.0000000E+00
  0.1092032    
  0.1544310    
  0.0000000E+00
  0.0000000E+00
  0.1055337    
  2.8369194E-02
  0.1544310    
  0.0000000E+00
  2.8369196E-02
  0.1544310    
  0.0000000E+00
  2.8369194E-02
  2.8369196E-02
  0.1544310    
  1.8906886E-02
  2.8369196E-02
  2.8369194E-02
  0.1544310    
  0.2057783    
  0.1544310    
  0.2057783    
  0.1544310    
  0.1544310    
  0.2057783    
  0.1544310    
  0.2057783    
  0.2057783    
  0.1544310    
  0.1544310    
  0.0000000E+00
  0.2057783    
  0.2057783    
  0.1544310    
  0.0000000E+00
  0.0000000E+00
  0.0000000E+00
  0.2057783    
  0.0000000E+00
  0.1544310    
  0.1544310    
  0.0000000E+00
  0.0000000E+00
  0.1300613    
  5.1922634E-02
  5.1922634E-02
  5.1922638E-02
  3.5923399E-02
  0.1544310    
  0.1544310    
  4.3386567E-02
  0.0000000E+00
  0.0000000E+00
  9.7032987E-02
  5.1922634E-02
  5.1922634E-02
  6.0001612E-02
  5.9382390E-02
  0.0000000E+00
  0.0000000E+00
  9.7032987E-02
  5.1922634E-02
  9.7032987E-02
  9.7032987E-02
  5.1922634E-02
  5.1922634E-02
  9.7032987E-02
  5.1922634E-02
  9.7032987E-02
  5.1922634E-02
  9.7032987E-02
  5.1922634E-02
  5.1922634E-02
  8.2439229E-02
  5.1922634E-02
  9.7032987E-02
  6.3250907E-02
  0.1563555    
  0.2441526    
  0.0000000E+00
  0.2463332    
  0.0000000E+00
  0.2463332    
  0.0000000E+00
  0.2463332    
  0.0000000E+00
  0.0000000E+00
  0.1080650    
  0.0000000E+00
  0.0000000E+00
  0.1477085    
  0.0000000E+00
  0.0000000E+00
  0.2119166    
  0.0000000E+00
  0.0000000E+00
  0.0000000E+00
  0.2119166    
  1.6882736E-02
  3.3742443E-02
  0.2119166    
  0.2119166    
  3.3742443E-02
  3.3742443E-02
  0.2119166    
  3.3742443E-02
  0.2119166    
  0.0000000E+00
  0.0000000E+00
  0.0000000E+00
  0.1824653    
  0.1161600    
  0.1884074    
  0.0000000E+00
  0.0000000E+00
  0.1824653    
  0.1381799    
  4.1809469E-02
  0.0000000E+00
  0.0000000E+00
  0.1824653    
  0.1824653    
  0.0000000E+00
  0.1824653    
  0.1824653    
  0.0000000E+00
  0.1538637    
  0.1824653    
  0.1824653    
  0.1672136    
  0.1672136    
  0.1672136    
  0.1538315    
  9.2933573E-02
  0.0000000E+00
  0.1538315    
  0.1538315    
  0.0000000E+00
  0.0000000E+00
  0.0000000E+00
  0.0000000E+00
  0.0000000E+00
  0.0000000E+00
  0.1538315    
  0.1538315    
  0.0000000E+00
  0.1538315    
  0.0000000E+00
  0.1538315    
  0.1538315    
  0.1415331    
  9.2738152E-02
  0.1538315    
  0.1452681    
  0.1448973    
  0.1415331    
  0.1452681    
  0.1452681    
  0.1452681    
  0.1285248    
  0.1285248    
  0.1242446    
  0.1285248    
  0.1285248    
  0.1285248    
  0.1285248    
  0.1285248    
  0.1285248    
  0.1285248    
  0.1285248    
  0.1285248    
  0.1285248    
  0.1285248    
  0.1285248    
  0.1285248    
  0.1285248    
  0.1285248    
  0.1285248    
