 Groundwater/Surface Water exchange (m3/day)
 for each APEX subarea
 --Calculated from MODFLOW River Package--
 Positive: Volume entering stream from the aquifer
 Negative: Volume seeps from stream to the aquifer
 
 Day:           1
 Daily GW/SW Exchange for each Subarea
 Aquifer/Stream       Drain/Stream
  0.0000000E+00  0.0000000E+00
  0.0000000E+00  0.0000000E+00
  0.0000000E+00  0.0000000E+00
  0.0000000E+00  0.0000000E+00
  0.0000000E+00  0.0000000E+00
  0.0000000E+00  0.0000000E+00
  0.0000000E+00  0.0000000E+00
  0.0000000E+00  0.0000000E+00
  0.0000000E+00  0.0000000E+00
  0.0000000E+00  0.0000000E+00
  0.0000000E+00  0.0000000E+00
  0.0000000E+00  0.0000000E+00
  0.0000000E+00  0.0000000E+00
  0.0000000E+00  0.0000000E+00
  0.0000000E+00  0.0000000E+00
  0.0000000E+00  0.0000000E+00
  0.0000000E+00  0.0000000E+00
  0.0000000E+00  0.0000000E+00
  0.0000000E+00  0.0000000E+00
  0.0000000E+00  0.0000000E+00
  0.0000000E+00  0.0000000E+00
  0.0000000E+00  0.0000000E+00
  0.0000000E+00  0.0000000E+00
  0.0000000E+00  0.0000000E+00
  0.0000000E+00  0.0000000E+00
  0.0000000E+00  0.0000000E+00
  0.0000000E+00  0.0000000E+00
  0.0000000E+00  0.0000000E+00
  0.0000000E+00  0.0000000E+00
  0.0000000E+00  0.0000000E+00
  0.0000000E+00  0.0000000E+00
  0.0000000E+00  0.0000000E+00
  0.0000000E+00  0.0000000E+00
  0.0000000E+00  0.0000000E+00
  0.0000000E+00  0.0000000E+00
  0.0000000E+00  0.0000000E+00
  0.0000000E+00  0.0000000E+00
  0.0000000E+00  0.0000000E+00
  0.0000000E+00  0.0000000E+00
  0.0000000E+00  0.0000000E+00
  0.0000000E+00  0.0000000E+00
  0.0000000E+00  0.0000000E+00
  0.0000000E+00  0.0000000E+00
   453.0579      0.0000000E+00
  0.0000000E+00  0.0000000E+00
  0.0000000E+00  0.0000000E+00
  0.0000000E+00  0.0000000E+00
  0.0000000E+00  0.0000000E+00
  0.0000000E+00  0.0000000E+00
  0.0000000E+00  0.0000000E+00
  0.0000000E+00  0.0000000E+00
  0.0000000E+00  0.0000000E+00
  0.0000000E+00  0.0000000E+00
  0.0000000E+00  0.0000000E+00
  0.0000000E+00  0.0000000E+00
  0.0000000E+00  0.0000000E+00
  0.0000000E+00  0.0000000E+00
  0.0000000E+00  0.0000000E+00
  0.0000000E+00  0.0000000E+00
  0.0000000E+00  0.0000000E+00
  0.0000000E+00  0.0000000E+00
  0.0000000E+00  0.0000000E+00
  0.0000000E+00  0.0000000E+00
  0.0000000E+00  0.0000000E+00
  0.0000000E+00  0.0000000E+00
  0.0000000E+00  0.0000000E+00
  0.0000000E+00  0.0000000E+00
  0.0000000E+00  0.0000000E+00
  0.0000000E+00  0.0000000E+00
  0.0000000E+00  0.0000000E+00
  0.0000000E+00  0.0000000E+00
  0.0000000E+00  0.0000000E+00
  0.0000000E+00  0.0000000E+00
  0.0000000E+00  0.0000000E+00
  0.0000000E+00  0.0000000E+00
 
 Day:         100
 Daily GW/SW Exchange for each Subarea
 Aquifer/Stream       Drain/Stream
  0.0000000E+00  0.0000000E+00
  0.0000000E+00  0.0000000E+00
  0.0000000E+00  0.0000000E+00
  0.0000000E+00  0.0000000E+00
  0.0000000E+00  0.0000000E+00
  0.0000000E+00  0.0000000E+00
  0.0000000E+00  0.0000000E+00
  0.0000000E+00  0.0000000E+00
  0.0000000E+00  0.0000000E+00
  0.0000000E+00  0.0000000E+00
  0.0000000E+00  0.0000000E+00
  0.0000000E+00  0.0000000E+00
  0.0000000E+00  0.0000000E+00
  0.0000000E+00  0.0000000E+00
  -2.678242      0.0000000E+00
  -2.125032      0.0000000E+00
  -12.63843      0.0000000E+00
  -33.91015      0.0000000E+00
  -365.0439      0.0000000E+00
  -610.4426      0.0000000E+00
  -542.0012      0.0000000E+00
  -508.7530      0.0000000E+00
  -24088.47      0.0000000E+00
  -644.8696      0.0000000E+00
   1049.144      0.0000000E+00
  -65.75473      0.0000000E+00
   958.2685      0.0000000E+00
  -640.7591      0.0000000E+00
  -4509.328      0.0000000E+00
  -255.9710      0.0000000E+00
  -3046.966      0.0000000E+00
  -22595.59      0.0000000E+00
  -783.0921      0.0000000E+00
  -189.3544      0.0000000E+00
  -8771.307      0.0000000E+00
  -3790.850      0.0000000E+00
  -19.28515      0.0000000E+00
   283.0370      0.0000000E+00
  -8877.535      0.0000000E+00
 -0.1299288      0.0000000E+00
   165.3209      0.0000000E+00
   705.6892      0.0000000E+00
  -1071.147      0.0000000E+00
   12950.08      0.0000000E+00
  -61.09340      0.0000000E+00
  -19800.79      0.0000000E+00
  -1269.369      0.0000000E+00
  -30509.27      0.0000000E+00
  -96.86429      0.0000000E+00
  -866.1302      0.0000000E+00
  -20958.71      0.0000000E+00
  -11036.29      0.0000000E+00
  -389.3547      0.0000000E+00
  -128.1264      0.0000000E+00
  -30693.31      0.0000000E+00
  -7502.740      0.0000000E+00
  -3292.030      0.0000000E+00
  -9687.569      0.0000000E+00
  -1893.641      0.0000000E+00
  -1.995190      0.0000000E+00
  -1.003740      0.0000000E+00
  -218.3904      0.0000000E+00
   34.07846      0.0000000E+00
   196.1988      0.0000000E+00
  -594.0875      0.0000000E+00
   24.96078      0.0000000E+00
   385.2811      0.0000000E+00
   44.90378      0.0000000E+00
   69.02217      0.0000000E+00
  -5.945113      0.0000000E+00
  -1388.707      0.0000000E+00
  -474.8954      0.0000000E+00
 -0.1955901      0.0000000E+00
  -582.5117      0.0000000E+00
  -7208.654      0.0000000E+00
