 Groundwater/Surface Water exchange (L3/T)
 for each MODFLOW River Cell
 Positive: River water seeps to the aquifer
 Negative: Groundwater flows from aquifer to river
 
 Day:           1
 Daily GW/SW Exchange for each River Cell
 Layer, Row, Column, Flow Rate
           1           6          73  0.0000000E+00
           1           7          73  0.0000000E+00
           1           8          73  0.0000000E+00
           1           9          63  0.0000000E+00
           1           9          72  0.0000000E+00
           1           9          73  0.0000000E+00
           1          10          62  0.0000000E+00
           1          10          72  0.0000000E+00
           1          11          58  0.0000000E+00
           1          11          62  0.0000000E+00
           1          11          71  0.0000000E+00
           1          11          72  0.0000000E+00
           1          12          57  0.0000000E+00
           1          12          62  0.0000000E+00
           1          12          71  0.0000000E+00
           1          13          57  0.0000000E+00
           1          13          62  0.0000000E+00
           1          13          69  0.0000000E+00
           1          13          70  0.0000000E+00
           1          13          71  0.0000000E+00
           1          14          58  0.0000000E+00
           1          14          62  0.0000000E+00
           1          14          68  0.0000000E+00
           1          14          69  0.0000000E+00
           1          15          55  0.0000000E+00
           1          15          56  0.0000000E+00
           1          15          57  0.0000000E+00
           1          15          58  0.0000000E+00
           1          15          59  0.0000000E+00
           1          15          60  0.0000000E+00
           1          15          63  0.0000000E+00
           1          15          64  0.0000000E+00
           1          15          65  0.0000000E+00
           1          15          66  0.0000000E+00
           1          15          67  0.0000000E+00
           1          15          68  0.0000000E+00
           1          15          69  0.0000000E+00
           1          16          53  0.0000000E+00
           1          16          54  0.0000000E+00
           1          16          55  0.0000000E+00
           1          16          60  0.0000000E+00
           1          16          61  0.0000000E+00
           1          16          63  0.0000000E+00
           1          16          64  0.0000000E+00
           1          16          69  0.0000000E+00
           1          16          70  0.0000000E+00
           1          17          62  0.0000000E+00
           1          17          63  0.0000000E+00
           1          17          70  0.0000000E+00
           1          18          62  0.0000000E+00
           1          19          62  0.0000000E+00
           1          20          62  0.0000000E+00
           1          21          62  0.0000000E+00
           1          22          62  0.0000000E+00
           1          23          62  0.0000000E+00
           1          24          54  0.0000000E+00
           1          24          62  0.0000000E+00
           1          25          46  0.0000000E+00
           1          25          54  0.0000000E+00
           1          25          62  0.0000000E+00
           1          26          46  0.0000000E+00
           1          26          54  0.0000000E+00
           1          26          62  0.0000000E+00
           1          26          63  0.0000000E+00
           1          26          64  0.0000000E+00
           1          27          46  0.0000000E+00
           1          27          54  0.0000000E+00
           1          27          62  0.0000000E+00
           1          27          64  0.0000000E+00
           1          27          65  0.0000000E+00
           1          27          66  0.0000000E+00
           1          27          67  0.0000000E+00
           1          28          46  0.0000000E+00
           1          28          53  0.0000000E+00
           1          28          62  0.0000000E+00
           1          29          38  0.0000000E+00
           1          29          46  0.0000000E+00
           1          29          53  0.0000000E+00
           1          29          61  0.0000000E+00
           1          30          37  0.0000000E+00
           1          30          47  0.0000000E+00
           1          30          53  0.0000000E+00
           1          30          61  0.0000000E+00
           1          31          37  0.0000000E+00
           1          31          47  0.0000000E+00
           1          31          48  0.0000000E+00
           1          31          53  0.0000000E+00
           1          31          60  0.0000000E+00
           1          31          61  0.0000000E+00
           1          32          37  0.0000000E+00
           1          32          48  0.0000000E+00
           1          32          52  0.0000000E+00
           1          32          53  0.0000000E+00
           1          32          59  0.0000000E+00
           1          32          60  0.0000000E+00
           1          33          38  0.0000000E+00
           1          33          39  0.0000000E+00
           1          33          40  0.0000000E+00
           1          33          49  0.0000000E+00
           1          33          52  0.0000000E+00
           1          33          59  0.0000000E+00
           1          34          37  0.0000000E+00
           1          34          38  0.0000000E+00
           1          34          39  0.0000000E+00
           1          34          40  0.0000000E+00
           1          34          41  0.0000000E+00
           1          34          49  0.0000000E+00
           1          34          52  0.0000000E+00
           1          34          58  0.0000000E+00
           1          34          59  0.0000000E+00
           1          35          37  0.0000000E+00
           1          35          49  0.0000000E+00
           1          35          50  0.0000000E+00
           1          35          51  0.0000000E+00
           1          35          52  0.0000000E+00
           1          35          58  0.0000000E+00
           1          36          37  0.0000000E+00
           1          36          49  0.0000000E+00
           1          36          57  0.0000000E+00
           1          36          58  0.0000000E+00
           1          37          36  0.0000000E+00
           1          37          49  0.0000000E+00
           1          37          53  0.0000000E+00
           1          38          53  0.0000000E+00
           1          38          54  0.0000000E+00
           1          37          54  0.0000000E+00
           1          37          55  0.0000000E+00
           1          37          56  0.0000000E+00
           1          37          57  0.0000000E+00
           1          37          58  0.0000000E+00
           1          38          36  0.0000000E+00
           1          38          49  0.0000000E+00
           1          38          50  0.0000000E+00
           1          38          51  0.0000000E+00
           1          38          52  0.0000000E+00
           1          38          59  0.0000000E+00
           1          39          35  0.0000000E+00
           1          39          50  0.0000000E+00
           1          39          51  0.0000000E+00
           1          40          34  0.0000000E+00
           1          40          35  0.0000000E+00
           1          40          49  0.0000000E+00
           1          41          34  0.0000000E+00
           1          41          35  0.0000000E+00
           1          41          49  0.0000000E+00
           1          42          34  0.0000000E+00
           1          42          49  0.0000000E+00
           1          43          35  0.0000000E+00
           1          43          49  0.0000000E+00
           1          44          35  0.0000000E+00
           1          44          49  0.0000000E+00
           1          45          35  0.0000000E+00
           1          45          47  0.0000000E+00
           1          45          49  0.0000000E+00
           1          46          35  0.0000000E+00
           1          46          47  0.0000000E+00
           1          46          49  0.0000000E+00
           1          47          32  0.0000000E+00
           1          47          33  0.0000000E+00
           1          47          34  0.0000000E+00
           1          47          35  0.0000000E+00
           1          47          36  0.0000000E+00
           1          47          40  0.0000000E+00
           1          47          47  0.0000000E+00
           1          47          48  0.0000000E+00
           1          47          49  0.0000000E+00
           1          47          50  0.0000000E+00
           1          48          32  0.0000000E+00
           1          48          36  0.0000000E+00
           1          48          37  0.0000000E+00
           1          48          39  0.0000000E+00
           1          48          40  0.0000000E+00
           1          48          47  0.0000000E+00
           1          48          48  0.0000000E+00
           1          48          49  0.0000000E+00
           1          48          50  0.0000000E+00
           1          48          51  0.0000000E+00
           1          48          52  0.0000000E+00
           1          48          62  0.0000000E+00
           1          48          63  0.0000000E+00
           1          49          37  0.0000000E+00
           1          49          38  0.0000000E+00
           1          49          39  0.0000000E+00
           1          50          47  0.0000000E+00
           1          49          47  0.0000000E+00
           1          49          48  0.0000000E+00
           1          50          48  0.0000000E+00
           1          49          61  0.0000000E+00
           1          49          62  0.0000000E+00
           1          50          38  0.0000000E+00
           1          50          39  0.0000000E+00
           1          50          46  0.0000000E+00
           1          50          59  0.0000000E+00
           1          50          60  0.0000000E+00
           1          51          39  0.0000000E+00
           1          51          46  0.0000000E+00
           1          51          47  0.0000000E+00
           1          51          58  0.0000000E+00
           1          51          59  0.0000000E+00
           1          52          40  0.0000000E+00
           1          52          46  0.0000000E+00
           1          52          47  0.0000000E+00
           1          52          58  0.0000000E+00
           1          53          40  0.0000000E+00
           1          53          46  0.0000000E+00
           1          53          47  0.0000000E+00
           1          53          57  0.0000000E+00
           1          53          58  -453.0579    
           1          54          40  0.0000000E+00
           1          54          41  0.0000000E+00
           1          54          46  0.0000000E+00
           1          54          57  0.0000000E+00
           1          55          41  0.0000000E+00
           1          55          46  0.0000000E+00
           1          55          56  0.0000000E+00
           1          55          57  0.0000000E+00
           1          56          41  0.0000000E+00
           1          56          45  0.0000000E+00
           1          56          56  0.0000000E+00
           1          57          41  0.0000000E+00
           1          57          45  0.0000000E+00
           1          57          46  0.0000000E+00
           1          57          56  0.0000000E+00
           1          58          31  0.0000000E+00
           1          58          41  0.0000000E+00
           1          58          42  0.0000000E+00
           1          58          44  0.0000000E+00
           1          58          45  0.0000000E+00
           1          58          46  0.0000000E+00
           1          58          56  0.0000000E+00
           1          59          31  0.0000000E+00
           1          59          32  0.0000000E+00
           1          59          42  0.0000000E+00
           1          59          43  0.0000000E+00
           1          59          44  0.0000000E+00
           1          59          45  0.0000000E+00
           1          59          56  0.0000000E+00
           1          60          32  0.0000000E+00
           1          60          42  0.0000000E+00
           1          60          43  0.0000000E+00
           1          60          57  0.0000000E+00
           1          61          32  0.0000000E+00
           1          61          42  0.0000000E+00
           1          61          57  0.0000000E+00
           1          62          32  0.0000000E+00
           1          62          33  0.0000000E+00
           1          62          41  0.0000000E+00
           1          62          42  0.0000000E+00
           1          62          57  0.0000000E+00
           1          63          33  0.0000000E+00
           1          63          41  0.0000000E+00
           1          63          57  0.0000000E+00
           1          64          33  0.0000000E+00
           1          65          33  0.0000000E+00
           1          64          41  0.0000000E+00
           1          64          57  0.0000000E+00
           1          65          56  0.0000000E+00
           1          65          57  0.0000000E+00
           1          66          28  0.0000000E+00
           1          66          34  0.0000000E+00
           1          66          40  0.0000000E+00
           1          66          55  0.0000000E+00
           1          66          56  0.0000000E+00
           1          67          28  0.0000000E+00
           1          67          35  0.0000000E+00
           1          67          40  0.0000000E+00
           1          67          53  0.0000000E+00
           1          67          54  0.0000000E+00
           1          67          55  0.0000000E+00
           1          68          28  0.0000000E+00
           1          68          36  0.0000000E+00
           1          68          40  0.0000000E+00
           1          68          51  0.0000000E+00
           1          68          52  0.0000000E+00
           1          68          53  0.0000000E+00
           1          69          28  0.0000000E+00
           1          69          29  0.0000000E+00
           1          69          36  0.0000000E+00
           1          69          39  0.0000000E+00
           1          69          40  0.0000000E+00
           1          69          47  0.0000000E+00
           1          69          48  0.0000000E+00
           1          69          49  0.0000000E+00
           1          69          50  0.0000000E+00
           1          69          51  0.0000000E+00
           1          70          29  0.0000000E+00
           1          70          30  0.0000000E+00
           1          71          30  0.0000000E+00
           1          70          36  0.0000000E+00
           1          70          38  0.0000000E+00
           1          70          39  0.0000000E+00
           1          70          46  0.0000000E+00
           1          70          47  0.0000000E+00
           1          71          31  0.0000000E+00
           1          71          32  0.0000000E+00
           1          71          37  0.0000000E+00
           1          71          38  0.0000000E+00
           1          71          45  0.0000000E+00
           1          71          46  0.0000000E+00
           1          72          30  0.0000000E+00
           1          72          31  0.0000000E+00
           1          72          32  0.0000000E+00
           1          72          37  0.0000000E+00
           1          72          44  0.0000000E+00
           1          72          45  0.0000000E+00
           1          73          31  0.0000000E+00
           1          73          32  0.0000000E+00
           1          73          36  0.0000000E+00
           1          73          37  0.0000000E+00
           1          73          44  0.0000000E+00
           1          74          32  0.0000000E+00
           1          74          33  0.0000000E+00
           1          74          34  0.0000000E+00
           1          74          35  0.0000000E+00
           1          74          36  0.0000000E+00
           1          74          44  0.0000000E+00
           1          75          36  0.0000000E+00
           1          75          44  0.0000000E+00
           1          76          37  0.0000000E+00
           1          76          45  0.0000000E+00
           1          77          37  0.0000000E+00
           1          77          45  0.0000000E+00
           1          77          46  0.0000000E+00
           1          78          37  0.0000000E+00
           1          78          46  0.0000000E+00
           1          79          33  0.0000000E+00
           1          80          34  0.0000000E+00
           1          79          34  0.0000000E+00
           1          79          37  0.0000000E+00
           1          79          46  0.0000000E+00
           1          80          47  0.0000000E+00
           1          80          35  0.0000000E+00
           1          80          37  0.0000000E+00
           1          80          38  0.0000000E+00
           1          81          36  0.0000000E+00
           1          81          38  0.0000000E+00
           1          81          47  0.0000000E+00
           1          82          35  0.0000000E+00
           1          82          37  0.0000000E+00
           1          82          38  0.0000000E+00
           1          82          47  0.0000000E+00
           1          83          47  0.0000000E+00
           1          83          35  0.0000000E+00
           1          83          36  0.0000000E+00
           1          83          37  0.0000000E+00
           1          84          35  0.0000000E+00
           1          84          47  0.0000000E+00
           1          85          35  0.0000000E+00
           1          85          46  0.0000000E+00
           1          85          47  0.0000000E+00
           1          86          35  0.0000000E+00
           1          86          46  0.0000000E+00
           1          87          34  0.0000000E+00
           1          87          35  0.0000000E+00
           1          87          45  0.0000000E+00
           1          87          46  0.0000000E+00
           1          87          49  0.0000000E+00
           1          88          33  0.0000000E+00
           1          88          34  0.0000000E+00
           1          88          45  0.0000000E+00
           1          88          47  0.0000000E+00
           1          89          47  0.0000000E+00
           1          88          48  0.0000000E+00
           1          88          49  0.0000000E+00
           1          89          33  0.0000000E+00
           1          89          42  0.0000000E+00
           1          89          44  0.0000000E+00
           1          89          45  0.0000000E+00
           1          89          46  0.0000000E+00
           1          90          33  0.0000000E+00
           1          90          38  0.0000000E+00
           1          90          39  0.0000000E+00
           1          90          40  0.0000000E+00
           1          90          41  0.0000000E+00
           1          90          42  0.0000000E+00
           1          90          43  0.0000000E+00
           1          90          44  0.0000000E+00
           1          90          45  0.0000000E+00
           1          90          46  0.0000000E+00
           1          91          33  0.0000000E+00
           1          91          37  0.0000000E+00
           1          91          38  0.0000000E+00
           1          91          41  0.0000000E+00
           1          91          42  0.0000000E+00
           1          91          43  0.0000000E+00
           1          91          44  0.0000000E+00
           1          92          33  0.0000000E+00
           1          92          37  0.0000000E+00
           1          93          33  0.0000000E+00
           1          93          34  0.0000000E+00
           1          93          36  0.0000000E+00
           1          93          37  0.0000000E+00
           1          94          34  0.0000000E+00
           1          94          36  0.0000000E+00
           1          95          34  0.0000000E+00
           1          95          36  0.0000000E+00
           1          96          34  0.0000000E+00
           1          96          35  0.0000000E+00
           1          96          36  0.0000000E+00
           1          97          34  0.0000000E+00
           1          98          34  0.0000000E+00
           1          97          35  0.0000000E+00
           1          98          33  0.0000000E+00
           1          99          34  0.0000000E+00
           1         100          34  0.0000000E+00
           1         101          30  0.0000000E+00
           1         101          33  0.0000000E+00
           1         102          29  0.0000000E+00
           1         102          33  0.0000000E+00
           1         103          29  0.0000000E+00
           1         103          33  0.0000000E+00
           1         103          36  0.0000000E+00
           1         104          29  0.0000000E+00
           1         104          34  0.0000000E+00
           1         104          35  0.0000000E+00
           1         105          30  0.0000000E+00
           1         105          34  0.0000000E+00
           1         106          28  0.0000000E+00
           1         107          28  0.0000000E+00
           1         106          30  0.0000000E+00
           1         106          33  0.0000000E+00
           1         107          29  0.0000000E+00
           1         107          30  0.0000000E+00
           1         107          33  0.0000000E+00
           1         108          29  0.0000000E+00
           1         108          30  0.0000000E+00
           1         108          32  0.0000000E+00
           1         108          33  0.0000000E+00
           1         109          29  0.0000000E+00
           1         109          30  0.0000000E+00
           1         109          32  0.0000000E+00
           1         110          30  0.0000000E+00
           1         110          32  0.0000000E+00
           1         110          34  0.0000000E+00
           1         110          35  0.0000000E+00
           1         110          36  0.0000000E+00
           1         111          29  0.0000000E+00
           1         111          30  0.0000000E+00
           1         111          32  0.0000000E+00
           1         111          33  0.0000000E+00
           1         111          34  0.0000000E+00
           1         112          29  0.0000000E+00
           1         112          31  0.0000000E+00
           1         112          32  0.0000000E+00
           1         112          33  0.0000000E+00
           1         113          25  0.0000000E+00
           1         113          28  0.0000000E+00
           1         113          29  0.0000000E+00
           1         114          25  0.0000000E+00
           1         114          27  0.0000000E+00
           1         114          28  0.0000000E+00
           1         115          25  0.0000000E+00
           1         115          26  0.0000000E+00
           1         115          27  0.0000000E+00
           1         115          28  0.0000000E+00
           1         116          24  0.0000000E+00
           1         116          25  0.0000000E+00
           1         116          26  0.0000000E+00
           1         117          23  0.0000000E+00
           1         117          24  0.0000000E+00
           1         117          25  0.0000000E+00
           1         118          22  0.0000000E+00
           1         118          23  0.0000000E+00
           1         118          25  0.0000000E+00
           1         118          26  0.0000000E+00
           1         118          27  0.0000000E+00
           1         118          28  0.0000000E+00
           1         118          29  0.0000000E+00
           1         119          19  0.0000000E+00
           1         119          21  0.0000000E+00
           1         119          22  0.0000000E+00
           1         120          19  0.0000000E+00
           1         120          21  0.0000000E+00
           1         121          19  0.0000000E+00
           1         121          20  0.0000000E+00
           1         121          21  0.0000000E+00
           1         122          18  0.0000000E+00
           1         122          19  0.0000000E+00
           1         122          20  0.0000000E+00
           1         123          16  0.0000000E+00
           1         123          17  0.0000000E+00
           1         123          18  0.0000000E+00
           1         124          14  0.0000000E+00
           1         124          15  0.0000000E+00
           1         124          16  0.0000000E+00
           1         125          11  0.0000000E+00
           1         125          12  0.0000000E+00
           1         125          13  0.0000000E+00
           1         126           9  0.0000000E+00
           1         126          10  0.0000000E+00
           1         126          11  0.0000000E+00
           1         127           7  0.0000000E+00
           1         127           8  0.0000000E+00
           1         127           9  0.0000000E+00
           1         128           6  0.0000000E+00
           1         128           7  0.0000000E+00
           1         129           4  0.0000000E+00
           1         129           5  0.0000000E+00
           1         129           6  0.0000000E+00
           1         130           2  0.0000000E+00
           1         130           3  0.0000000E+00
           1         130           4  0.0000000E+00
           1         131           1  0.0000000E+00
           1         131           2  0.0000000E+00
 
 Day:         100
 Daily GW/SW Exchange for each River Cell
 Layer, Row, Column, Flow Rate
           1           6          73  0.0000000E+00
           1           7          73  0.0000000E+00
           1           8          73  0.0000000E+00
           1           9          63  0.0000000E+00
           1           9          72  0.0000000E+00
           1           9          73  0.0000000E+00
           1          10          62  0.0000000E+00
           1          10          72  0.0000000E+00
           1          11          58  0.0000000E+00
           1          11          62  0.0000000E+00
           1          11          71  0.0000000E+00
           1          11          72  0.0000000E+00
           1          12          57  0.0000000E+00
           1          12          62  0.0000000E+00
           1          12          71  0.0000000E+00
           1          13          57  0.0000000E+00
           1          13          62  0.0000000E+00
           1          13          69  0.0000000E+00
           1          13          70  0.0000000E+00
           1          13          71  0.0000000E+00
           1          14          58  0.0000000E+00
           1          14          62  0.0000000E+00
           1          14          68  0.0000000E+00
           1          14          69  0.0000000E+00
           1          15          55  0.0000000E+00
           1          15          56  0.0000000E+00
           1          15          57  0.0000000E+00
           1          15          58  0.0000000E+00
           1          15          59  0.0000000E+00
           1          15          60  0.0000000E+00
           1          15          63  0.0000000E+00
           1          15          64  0.0000000E+00
           1          15          65  0.0000000E+00
           1          15          66  0.0000000E+00
           1          15          67  0.0000000E+00
           1          15          68  0.0000000E+00
           1          15          69  0.0000000E+00
           1          16          53  0.0000000E+00
           1          16          54  0.0000000E+00
           1          16          55  0.0000000E+00
           1          16          60  0.0000000E+00
           1          16          61  0.0000000E+00
           1          16          63  0.0000000E+00
           1          16          64  0.0000000E+00
           1          16          69  0.0000000E+00
           1          16          70  0.0000000E+00
           1          17          62  0.0000000E+00
           1          17          63  0.0000000E+00
           1          17          70  0.0000000E+00
           1          18          62  0.0000000E+00
           1          19          62  0.0000000E+00
           1          20          62  0.0000000E+00
           1          21          62  0.0000000E+00
           1          22          62  0.0000000E+00
           1          23          62  0.0000000E+00
           1          24          54  0.0000000E+00
           1          24          62  0.0000000E+00
           1          25          46  0.0000000E+00
           1          25          54  0.0000000E+00
           1          25          62  0.0000000E+00
           1          26          46  0.0000000E+00
           1          26          54  0.0000000E+00
           1          26          62  0.0000000E+00
           1          26          63  0.0000000E+00
           1          26          64  0.0000000E+00
           1          27          46  0.0000000E+00
           1          27          54  0.0000000E+00
           1          27          62  0.0000000E+00
           1          27          64  0.0000000E+00
           1          27          65  0.0000000E+00
           1          27          66  0.0000000E+00
           1          27          67  0.0000000E+00
           1          28          46  0.0000000E+00
           1          28          53  0.0000000E+00
           1          28          62  0.0000000E+00
           1          29          38  0.0000000E+00
           1          29          46  0.0000000E+00
           1          29          53  0.0000000E+00
           1          29          61  0.0000000E+00
           1          30          37  0.0000000E+00
           1          30          47  0.0000000E+00
           1          30          53  0.0000000E+00
           1          30          61  0.0000000E+00
           1          31          37  0.0000000E+00
           1          31          47  0.0000000E+00
           1          31          48  0.0000000E+00
           1          31          53  0.0000000E+00
           1          31          60  0.0000000E+00
           1          31          61  0.0000000E+00
           1          32          37  0.0000000E+00
           1          32          48  0.0000000E+00
           1          32          52  0.0000000E+00
           1          32          53  0.0000000E+00
           1          32          59  0.0000000E+00
           1          32          60  0.0000000E+00
           1          33          38  0.0000000E+00
           1          33          39  0.0000000E+00
           1          33          40  0.0000000E+00
           1          33          49  0.0000000E+00
           1          33          52  0.0000000E+00
           1          33          59  0.0000000E+00
           1          34          37   13.05753    
           1          34          38  0.0000000E+00
           1          34          39  0.0000000E+00
           1          34          40  0.0000000E+00
           1          34          41  0.0000000E+00
           1          34          49  0.0000000E+00
           1          34          52  0.0000000E+00
           1          34          58  0.0000000E+00
           1          34          59  0.0000000E+00
           1          35          37   40.55279    
           1          35          49   87.66797    
           1          35          50  0.0000000E+00
           1          35          51  0.0000000E+00
           1          35          52  0.0000000E+00
           1          35          58  0.0000000E+00
           1          36          37   45.33081    
           1          36          49   172.8816    
           1          36          57   709.8824    
           1          36          58  0.0000000E+00
           1          37          36   41.01959    
           1          37          49   167.8582    
           1          37          53   2779.838    
           1          38          53   923.5947    
           1          38          54   360.4418    
           1          37          54   3538.667    
           1          37          55   3554.139    
           1          37          56   3796.745    
           1          37          57   726.2181    
           1          37          58  0.0000000E+00
           1          38          36   49.51149    
           1          38          49   56.15182    
           1          38          50   161.9755    
           1          38          51   3138.967    
           1          38          52   3718.891    
           1          38          59  0.0000000E+00
           1          39          35   42.15435    
           1          39          50   2618.550    
           1          39          51   695.1169    
           1          40          34   18.76082    
           1          40          35   48.29983    
           1          40          49   588.4940    
           1          41          34   19.14923    
           1          41          35   27.36700    
           1          41          49   147.6462    
           1          42          34   34.87230    
           1          42          49   740.1594    
           1          43          35   43.92521    
           1          43          49   630.5156    
           1          44          35   40.66506    
           1          44          49   675.1245    
           1          45          35   41.55404    
           1          45          47  0.0000000E+00
           1          45          49  -2619.078    
           1          46          35   44.85041    
           1          46          47  0.0000000E+00
           1          46          49  -2376.570    
           1          47          32  0.0000000E+00
           1          47          33  0.0000000E+00
           1          47          34  0.0000000E+00
           1          47          35   14.37924    
           1          47          36   1013.435    
           1          47          40  0.0000000E+00
           1          47          47  0.0000000E+00
           1          47          48   291.0434    
           1          47          49  0.0000000E+00
           1          47          50  0.0000000E+00
           1          48          32  0.0000000E+00
           1          48          36   86.47834    
           1          48          37   1118.156    
           1          48          39  0.0000000E+00
           1          48          40  0.0000000E+00
           1          48          47  0.0000000E+00
           1          48          48   451.9740    
           1          48          49  0.0000000E+00
           1          48          50  -103.3405    
           1          48          51  -410.0393    
           1          48          52  -534.2657    
           1          48          62  0.0000000E+00
           1          48          63  0.0000000E+00
           1          49          37   909.1272    
           1          49          38   659.5042    
           1          49          39  0.0000000E+00
           1          50          47   468.3728    
           1          49          47  0.0000000E+00
           1          49          48   337.3043    
           1          50          48   11.18931    
           1          49          61  0.0000000E+00
           1          49          62  0.0000000E+00
           1          50          38   804.0413    
           1          50          39   1815.069    
           1          50          46  0.0000000E+00
           1          50          59  -1000.569    
           1          50          60  0.0000000E+00
           1          51          39   2679.369    
           1          51          46   14.00046    
           1          51          47   658.7189    
           1          51          58  0.0000000E+00
           1          51          59  -1758.336    
           1          52          40   4186.140    
           1          52          46   39.39567    
           1          52          47   535.1856    
           1          52          58  -1690.925    
           1          53          40   3553.049    
           1          53          46   113.8311    
           1          53          47   581.5368    
           1          53          57  -1054.396    
           1          53          58  -1295.932    
           1          54          40   622.3110    
           1          54          41   2907.817    
           1          54          46   180.4931    
           1          54          57  -1368.505    
           1          55          41   3047.738    
           1          55          46   147.9194    
           1          55          56  -1204.567    
           1          55          57  -1015.176    
           1          56          41   2926.590    
           1          56          45   116.0899    
           1          56          56  -1352.536    
           1          57          41   3310.633    
           1          57          45   162.4655    
           1          57          46  0.0000000E+00
           1          57          56  -1217.313    
           1          58          31  0.0000000E+00
           1          58          41   342.2205    
           1          58          42   3476.798    
           1          58          44   324.9489    
           1          58          45   38.68686    
           1          58          46  0.0000000E+00
           1          58          56  0.0000000E+00
           1          59          31  0.0000000E+00
           1          59          32  0.0000000E+00
           1          59          42   625.9078    
           1          59          43   5587.983    
           1          59          44   573.9316    
           1          59          45  0.0000000E+00
           1          59          56  0.0000000E+00
           1          60          32  0.0000000E+00
           1          60          42   32.32665    
           1          60          43   2549.237    
           1          60          57  0.0000000E+00
           1          61          32  0.0000000E+00
           1          61          42   1943.560    
           1          61          57  0.0000000E+00
           1          62          32  0.0000000E+00
           1          62          33  0.0000000E+00
           1          62          41   247.8393    
           1          62          42   1659.873    
           1          62          57  0.0000000E+00
           1          63          33  0.0000000E+00
           1          63          41   1927.875    
           1          63          57  0.0000000E+00
           1          64          33  0.0000000E+00
           1          65          33  0.0000000E+00
           1          64          41   1005.003    
           1          64          57  0.0000000E+00
           1          65          56  0.0000000E+00
           1          65          57  0.0000000E+00
           1          66          28  0.0000000E+00
           1          66          34  0.0000000E+00
           1          66          40   1397.078    
           1          66          55  0.0000000E+00
           1          66          56  0.0000000E+00
           1          67          28  0.0000000E+00
           1          67          35  0.0000000E+00
           1          67          40   1523.889    
           1          67          53  0.0000000E+00
           1          67          54  0.0000000E+00
           1          67          55  0.0000000E+00
           1          68          28  0.0000000E+00
           1          68          36  0.0000000E+00
           1          68          40  -534.0122    
           1          68          51  0.0000000E+00
           1          68          52  0.0000000E+00
           1          68          53  0.0000000E+00
           1          69          28  0.0000000E+00
           1          69          29  0.0000000E+00
           1          69          36  0.0000000E+00
           1          69          39   97.09850    
           1          69          40  -990.3399    
           1          69          47  0.0000000E+00
           1          69          48  0.0000000E+00
           1          69          49  0.0000000E+00
           1          69          50  0.0000000E+00
           1          69          51  0.0000000E+00
           1          70          29  0.0000000E+00
           1          70          30  0.0000000E+00
           1          71          30  0.0000000E+00
           1          70          36  0.0000000E+00
           1          70          38   420.7605    
           1          70          39  -990.5007    
           1          70          46  0.0000000E+00
           1          70          47  0.0000000E+00
           1          71          31  0.0000000E+00
           1          71          32  0.0000000E+00
           1          71          37   136.8713    
           1          71          38  -905.9342    
           1          71          45  0.0000000E+00
           1          71          46  0.0000000E+00
           1          72          30  0.0000000E+00
           1          72          31  0.0000000E+00
           1          72          32   21.47538    
           1          72          37  -718.6936    
           1          72          44  0.0000000E+00
           1          72          45  0.0000000E+00
           1          73          31  0.0000000E+00
           1          73          32   323.0697    
           1          73          36  -117.5960    
           1          73          37  -144.8973    
           1          73          44  0.0000000E+00
           1          74          32   52.96354    
           1          74          33   272.4559    
           1          74          34   269.7680    
           1          74          35   257.6649    
           1          74          36  -1203.925    
           1          74          44  0.0000000E+00
           1          75          36   335.7450    
           1          75          44  0.0000000E+00
           1          76          37  -538.2790    
           1          76          45  0.0000000E+00
           1          77          37   7666.335    
           1          77          45  0.0000000E+00
           1          77          46  0.0000000E+00
           1          78          37   6541.829    
           1          78          46   496.9189    
           1          79          33  0.0000000E+00
           1          80          34  0.0000000E+00
           1          79          34  0.0000000E+00
           1          79          37   5316.631    
           1          79          46   533.1285    
           1          80          47   1143.984    
           1          80          35  0.0000000E+00
           1          80          37   1027.680    
           1          80          38   3314.808    
           1          81          36  0.0000000E+00
           1          81          38   6291.759    
           1          81          47   670.0202    
           1          82          35  0.0000000E+00
           1          82          37   3399.157    
           1          82          38   9637.002    
           1          82          47   875.8115    
           1          83          47   1371.985    
           1          83          35   1960.368    
           1          83          36   5648.119    
           1          83          37   1579.201    
           1          84          35   3173.059    
           1          84          47   778.9981    
           1          85          35   3183.697    
           1          85          46   400.8150    
           1          85          47   327.3956    
           1          86          35   3335.026    
           1          86          46   852.2474    
           1          87          34   2244.570    
           1          87          35   2239.561    
           1          87          45   158.2054    
           1          87          46   590.5532    
           1          87          49  0.0000000E+00
           1          88          33   701.2057    
           1          88          34   3849.230    
           1          88          45   880.0679    
           1          88          47  0.0000000E+00
           1          89          47  0.0000000E+00
           1          88          48  0.0000000E+00
           1          88          49  0.0000000E+00
           1          89          33   613.6312    
           1          89          42  0.0000000E+00
           1          89          44   513.7111    
           1          89          45   559.3138    
           1          89          46  0.0000000E+00
           1          90          33   2461.013    
           1          90          38   60.05419    
           1          90          39   313.3062    
           1          90          40   452.2964    
           1          90          41   271.6158    
           1          90          42   66.65928    
           1          90          43   834.7560    
           1          90          44   161.3062    
           1          90          45  0.0000000E+00
           1          90          46  0.0000000E+00
           1          91          33   4084.374    
           1          91          37   142.1498    
           1          91          38   388.4375    
           1          91          41   10.15834    
           1          91          42   312.3594    
           1          91          43  0.0000000E+00
           1          91          44  0.0000000E+00
           1          92          33   4306.447    
           1          92          37   371.3753    
           1          93          33   2027.635    
           1          93          34   3217.253    
           1          93          36   310.3475    
           1          93          37   63.08918    
           1          94          34   4180.091    
           1          94          36   328.2656    
           1          95          34   3977.094    
           1          95          36   393.3568    
           1          96          34   4023.040    
           1          96          35   335.9362    
           1          96          36   55.07404    
           1          97          34   3946.864    
           1          98          34   2031.564    
           1          97          35   626.0325    
           1          98          33   1007.512    
           1          99          34   2781.463    
           1         100          34   4904.098    
           1         101          30  0.0000000E+00
           1         101          33   2985.887    
           1         102          29  0.0000000E+00
           1         102          33   2093.668    
           1         103          29  0.0000000E+00
           1         103          33   257.5121    
           1         103          36  0.0000000E+00
           1         104          29  0.0000000E+00
           1         104          34   1640.943    
           1         104          35  0.0000000E+00
           1         105          30  0.0000000E+00
           1         105          34   2873.924    
           1         106          28  0.0000000E+00
           1         107          28  0.0000000E+00
           1         106          30  0.0000000E+00
           1         106          33  -325.9799    
           1         107          29  0.0000000E+00
           1         107          30  0.0000000E+00
           1         107          33  -454.3599    
           1         108          29   6.001957    
           1         108          30   73.05550    
           1         108          32  -112.9450    
           1         108          33  -98.20456    
           1         109          29   2.427891    
           1         109          30   83.28983    
           1         109          32  -325.7512    
           1         110          30   93.62080    
           1         110          32  -237.6266    
           1         110          34  0.0000000E+00
           1         110          35  0.0000000E+00
           1         110          36  0.0000000E+00
           1         111          29   371.2170    
           1         111          30  -80.95939    
           1         111          32  -69.05388    
           1         111          33  0.0000000E+00
           1         111          34  0.0000000E+00
           1         112          29  -189.3085    
           1         112          31  -10.26960    
           1         112          32   753.4987    
           1         112          33  0.0000000E+00
           1         113          25  0.0000000E+00
           1         113          28  -43.55352    
           1         113          29  -102.3069    
           1         114          25  0.0000000E+00
           1         114          27   51.39053    
           1         114          28  -231.7978    
           1         115          25  0.0000000E+00
           1         115          26  -173.4997    
           1         115          27  -141.2351    
           1         115          28   36.08073    
           1         116          24   219.8980    
           1         116          25  -171.1943    
           1         116          26  -23.89459    
           1         117          23   791.6680    
           1         117          24  -164.9114    
           1         117          25  0.0000000E+00
           1         118          22   914.8397    
           1         118          23  -165.8357    
           1         118          25  0.0000000E+00
           1         118          26  0.0000000E+00
           1         118          27  0.0000000E+00
           1         118          28  0.0000000E+00
           1         118          29  0.0000000E+00
           1         119          19  0.0000000E+00
           1         119          21   114.9080    
           1         119          22  -126.2677    
           1         120          19  0.0000000E+00
           1         120          21  -39.58388    
           1         121          19  0.0000000E+00
           1         121          20   12.20718    
           1         121          21  -32.46959    
           1         122          18   469.9270    
           1         122          19   16.73091    
           1         122          20  -29.87591    
           1         123          16   580.1217    
           1         123          17  0.0000000E+00
           1         123          18  -3.780854    
           1         124          14   6.693644    
           1         124          15  -24.91108    
           1         124          16   19.46589    
           1         125          11   1758.865    
           1         125          12   4.167390    
           1         125          13   1.407807    
           1         126           9  -12.32088    
           1         126          10  -12.00297    
           1         126          11   849.5251    
           1         127           7   1051.177    
           1         127           8  -19.77211    
           1         127           9   1003.420    
           1         128           6  -40.06543    
           1         128           7  -44.17864    
           1         129           4   630.0517    
           1         129           5   70.47466    
           1         129           6   120.8619    
           1         130           2  -274.1117    
           1         130           3  -133.1189    
           1         130           4   173.6536    
           1         131           1   2036.588    
           1         131           2   45.36910    
