 MODFLOW River Stage (L) (for each River Cell)
 --Calculated from APEX Channel Depth--
 
 Day:           1
 Channel depth for each MODFLOW River Cell
  0.0000000E+00
  0.0000000E+00
  0.0000000E+00
  0.0000000E+00
  0.0000000E+00
  0.0000000E+00
  0.0000000E+00
  0.0000000E+00
  0.0000000E+00
  0.0000000E+00
  0.0000000E+00
  0.0000000E+00
  0.0000000E+00
  0.0000000E+00
  0.0000000E+00
  0.0000000E+00
  0.0000000E+00
  0.0000000E+00
  0.0000000E+00
  0.0000000E+00
  0.0000000E+00
  0.0000000E+00
  0.0000000E+00
  0.0000000E+00
  0.0000000E+00
  0.0000000E+00
  0.0000000E+00
  0.0000000E+00
  0.0000000E+00
  0.0000000E+00
  0.0000000E+00
  0.0000000E+00
  0.0000000E+00
  0.0000000E+00
  0.0000000E+00
  0.0000000E+00
  0.0000000E+00
  0.0000000E+00
  0.0000000E+00
  0.0000000E+00
  0.0000000E+00
  0.0000000E+00
  0.0000000E+00
  0.0000000E+00
  0.0000000E+00
  0.0000000E+00
  0.0000000E+00
  0.0000000E+00
  0.0000000E+00
  0.0000000E+00
  0.0000000E+00
  0.0000000E+00
  0.0000000E+00
  0.0000000E+00
  0.0000000E+00
  0.0000000E+00
  0.0000000E+00
  0.0000000E+00
  0.0000000E+00
  0.0000000E+00
  0.0000000E+00
  0.0000000E+00
  0.0000000E+00
  0.0000000E+00
  0.0000000E+00
  0.0000000E+00
  0.0000000E+00
  0.0000000E+00
  0.0000000E+00
  0.0000000E+00
  0.0000000E+00
  0.0000000E+00
  0.0000000E+00
  0.0000000E+00
  0.0000000E+00
  0.0000000E+00
  0.0000000E+00
  0.0000000E+00
  0.0000000E+00
  0.0000000E+00
  0.0000000E+00
  0.0000000E+00
  0.0000000E+00
  0.0000000E+00
  0.0000000E+00
  0.0000000E+00
  0.0000000E+00
  0.0000000E+00
  0.0000000E+00
  0.0000000E+00
  0.0000000E+00
  0.0000000E+00
  0.0000000E+00
  0.0000000E+00
  0.0000000E+00
  0.0000000E+00
  0.0000000E+00
  0.0000000E+00
  0.0000000E+00
  0.0000000E+00
  0.0000000E+00
  0.0000000E+00
  0.0000000E+00
  0.0000000E+00
  0.0000000E+00
  0.0000000E+00
  0.0000000E+00
  0.0000000E+00
  0.0000000E+00
  0.0000000E+00
  0.0000000E+00
  0.0000000E+00
  0.0000000E+00
  0.0000000E+00
  0.0000000E+00
  0.0000000E+00
  0.0000000E+00
  0.0000000E+00
  0.0000000E+00
  0.0000000E+00
  0.0000000E+00
  0.0000000E+00
  0.0000000E+00
  0.0000000E+00
  0.0000000E+00
  0.0000000E+00
  0.0000000E+00
  0.0000000E+00
  0.0000000E+00
  0.0000000E+00
  0.0000000E+00
  0.0000000E+00
  0.0000000E+00
  0.0000000E+00
  0.0000000E+00
  0.0000000E+00
  0.0000000E+00
  0.0000000E+00
  0.0000000E+00
  0.0000000E+00
  0.0000000E+00
  0.0000000E+00
  0.0000000E+00
  0.0000000E+00
  0.0000000E+00
  0.0000000E+00
  0.0000000E+00
  0.0000000E+00
  0.0000000E+00
  0.0000000E+00
  0.0000000E+00
  0.0000000E+00
  0.0000000E+00
  0.0000000E+00
  0.0000000E+00
  0.0000000E+00
  0.0000000E+00
  0.0000000E+00
  0.0000000E+00
  0.0000000E+00
  0.0000000E+00
  0.0000000E+00
  0.0000000E+00
  0.0000000E+00
  0.0000000E+00
  0.0000000E+00
  0.0000000E+00
  0.0000000E+00
  0.0000000E+00
  0.0000000E+00
  0.0000000E+00
  0.0000000E+00
  0.0000000E+00
  0.0000000E+00
  0.0000000E+00
  0.0000000E+00
  0.0000000E+00
  0.0000000E+00
  0.0000000E+00
  0.0000000E+00
  0.0000000E+00
  0.0000000E+00
  0.0000000E+00
  0.0000000E+00
  0.0000000E+00
  0.0000000E+00
  0.0000000E+00
  0.0000000E+00
  0.0000000E+00
  0.0000000E+00
  0.0000000E+00
  0.0000000E+00
  0.0000000E+00
  0.0000000E+00
  0.0000000E+00
  0.0000000E+00
  0.0000000E+00
  0.0000000E+00
  0.0000000E+00
  0.0000000E+00
  0.0000000E+00
  0.0000000E+00
  0.0000000E+00
  0.0000000E+00
  0.0000000E+00
  0.0000000E+00
  0.0000000E+00
  0.0000000E+00
  0.0000000E+00
  0.0000000E+00
  0.0000000E+00
  0.0000000E+00
  0.0000000E+00
  0.0000000E+00
  0.0000000E+00
  0.0000000E+00
  0.0000000E+00
  0.0000000E+00
  0.0000000E+00
  0.0000000E+00
  0.0000000E+00
  0.0000000E+00
  0.0000000E+00
  0.0000000E+00
  0.0000000E+00
  0.0000000E+00
  0.0000000E+00
  0.0000000E+00
  0.0000000E+00
  0.0000000E+00
  0.0000000E+00
  0.0000000E+00
  0.0000000E+00
  0.0000000E+00
  0.0000000E+00
  0.0000000E+00
  0.0000000E+00
  0.0000000E+00
  0.0000000E+00
  0.0000000E+00
  0.0000000E+00
  0.0000000E+00
  0.0000000E+00
  0.0000000E+00
  0.0000000E+00
  0.0000000E+00
  0.0000000E+00
  0.0000000E+00
  0.0000000E+00
  0.0000000E+00
  0.0000000E+00
  0.0000000E+00
  0.0000000E+00
  0.0000000E+00
  0.0000000E+00
  0.0000000E+00
  0.0000000E+00
  0.0000000E+00
  0.0000000E+00
  0.0000000E+00
  0.0000000E+00
  0.0000000E+00
  0.0000000E+00
  0.0000000E+00
  0.0000000E+00
  0.0000000E+00
  0.0000000E+00
  0.0000000E+00
  0.0000000E+00
  0.0000000E+00
  0.0000000E+00
  0.0000000E+00
  0.0000000E+00
  0.0000000E+00
  0.0000000E+00
  0.0000000E+00
  0.0000000E+00
  0.0000000E+00
  0.0000000E+00
  0.0000000E+00
  0.0000000E+00
  0.0000000E+00
  0.0000000E+00
  0.0000000E+00
  0.0000000E+00
  0.0000000E+00
  0.0000000E+00
  0.0000000E+00
  0.0000000E+00
  0.0000000E+00
  0.0000000E+00
  0.0000000E+00
  0.0000000E+00
  0.0000000E+00
  0.0000000E+00
  0.0000000E+00
  0.0000000E+00
  0.0000000E+00
  0.0000000E+00
  0.0000000E+00
  0.0000000E+00
  0.0000000E+00
  0.0000000E+00
  0.0000000E+00
  0.0000000E+00
  0.0000000E+00
  0.0000000E+00
  0.0000000E+00
  0.0000000E+00
  0.0000000E+00
  0.0000000E+00
  0.0000000E+00
  0.0000000E+00
  0.0000000E+00
  0.0000000E+00
  0.0000000E+00
  0.0000000E+00
  0.0000000E+00
  0.0000000E+00
  0.0000000E+00
  0.0000000E+00
  0.0000000E+00
  0.0000000E+00
  0.0000000E+00
  0.0000000E+00
  0.0000000E+00
  0.0000000E+00
  0.0000000E+00
  0.0000000E+00
  0.0000000E+00
  0.0000000E+00
  0.0000000E+00
  0.0000000E+00
  0.0000000E+00
  0.0000000E+00
  0.0000000E+00
  0.0000000E+00
  0.0000000E+00
  0.0000000E+00
  0.0000000E+00
  0.0000000E+00
  0.0000000E+00
  0.0000000E+00
  0.0000000E+00
  0.0000000E+00
  0.0000000E+00
  0.0000000E+00
  0.0000000E+00
  0.0000000E+00
  0.0000000E+00
  0.0000000E+00
  0.0000000E+00
  0.0000000E+00
  0.0000000E+00
  0.0000000E+00
  0.0000000E+00
  0.0000000E+00
  0.0000000E+00
  0.0000000E+00
  0.0000000E+00
  0.0000000E+00
  0.0000000E+00
  0.0000000E+00
  0.0000000E+00
  0.0000000E+00
  0.0000000E+00
  0.0000000E+00
  0.0000000E+00
  0.0000000E+00
  0.0000000E+00
  0.0000000E+00
  0.0000000E+00
  0.0000000E+00
  0.0000000E+00
  0.0000000E+00
  0.0000000E+00
  0.0000000E+00
  0.0000000E+00
  0.0000000E+00
  0.0000000E+00
  0.0000000E+00
  0.0000000E+00
  0.0000000E+00
  0.0000000E+00
  0.0000000E+00
  0.0000000E+00
  0.0000000E+00
  0.0000000E+00
  0.0000000E+00
  0.0000000E+00
  0.0000000E+00
  0.0000000E+00
  0.0000000E+00
  0.0000000E+00
  0.0000000E+00
  0.0000000E+00
  0.0000000E+00
  0.0000000E+00
  0.0000000E+00
  0.0000000E+00
  0.0000000E+00
  0.0000000E+00
  0.0000000E+00
  0.0000000E+00
  0.0000000E+00
  0.0000000E+00
  0.0000000E+00
  0.0000000E+00
  0.0000000E+00
  0.0000000E+00
  0.0000000E+00
  0.0000000E+00
  0.0000000E+00
  0.0000000E+00
  0.0000000E+00
  0.0000000E+00
  0.0000000E+00
  0.0000000E+00
  0.0000000E+00
  0.0000000E+00
  0.0000000E+00
  0.0000000E+00
  0.0000000E+00
  0.0000000E+00
  0.0000000E+00
  0.0000000E+00
  0.0000000E+00
  0.0000000E+00
  0.0000000E+00
  0.0000000E+00
  0.0000000E+00
  0.0000000E+00
  0.0000000E+00
  0.0000000E+00
  0.0000000E+00
  0.0000000E+00
  0.0000000E+00
  0.0000000E+00
  0.0000000E+00
  0.0000000E+00
  0.0000000E+00
  0.0000000E+00
  0.0000000E+00
  0.0000000E+00
  0.0000000E+00
  0.0000000E+00
  0.0000000E+00
  0.0000000E+00
  0.0000000E+00
  0.0000000E+00
  0.0000000E+00
  0.0000000E+00
  0.0000000E+00
  0.0000000E+00
  0.0000000E+00
  0.0000000E+00
  0.0000000E+00
  0.0000000E+00
  0.0000000E+00
  0.0000000E+00
  0.0000000E+00
  0.0000000E+00
  0.0000000E+00
  0.0000000E+00
  0.0000000E+00
  0.0000000E+00
  0.0000000E+00
  0.0000000E+00
  0.0000000E+00
  0.0000000E+00
  0.0000000E+00
  0.0000000E+00
  0.0000000E+00
  0.0000000E+00
  0.0000000E+00
  0.0000000E+00
  0.0000000E+00
  0.0000000E+00
  0.0000000E+00
  0.0000000E+00
  0.0000000E+00
  0.0000000E+00
  0.0000000E+00
  0.0000000E+00
  0.0000000E+00
  0.0000000E+00
  0.0000000E+00
  0.0000000E+00
  0.0000000E+00
  0.0000000E+00
  0.0000000E+00
  0.0000000E+00
  0.0000000E+00
  0.0000000E+00
  0.0000000E+00
  0.0000000E+00
  0.0000000E+00
  0.0000000E+00
  0.0000000E+00
  0.0000000E+00
  0.0000000E+00
  0.0000000E+00
  0.0000000E+00
  0.0000000E+00
 
 Day:         100
 Channel depth for each MODFLOW River Cell
  0.0000000E+00
  0.0000000E+00
  0.0000000E+00
  0.0000000E+00
  0.0000000E+00
  0.0000000E+00
  0.0000000E+00
  0.0000000E+00
  0.0000000E+00
  0.0000000E+00
  0.0000000E+00
  0.0000000E+00
  0.0000000E+00
  0.0000000E+00
  0.0000000E+00
  0.0000000E+00
  0.0000000E+00
  0.0000000E+00
  0.0000000E+00
  0.0000000E+00
  0.0000000E+00
  0.0000000E+00
  0.0000000E+00
  0.0000000E+00
  0.0000000E+00
  0.0000000E+00
  0.0000000E+00
  0.0000000E+00
  0.0000000E+00
  0.0000000E+00
  0.0000000E+00
  0.0000000E+00
  0.0000000E+00
  0.0000000E+00
  0.0000000E+00
  0.0000000E+00
  0.0000000E+00
  0.0000000E+00
  0.0000000E+00
  0.0000000E+00
  0.0000000E+00
  0.0000000E+00
  0.0000000E+00
  0.0000000E+00
  0.0000000E+00
  0.0000000E+00
  0.0000000E+00
  0.0000000E+00
  0.0000000E+00
  0.0000000E+00
  0.0000000E+00
  0.0000000E+00
  0.0000000E+00
  0.0000000E+00
  0.0000000E+00
  0.0000000E+00
  0.0000000E+00
  0.0000000E+00
  0.0000000E+00
  0.0000000E+00
  0.0000000E+00
  0.0000000E+00
  0.0000000E+00
  0.0000000E+00
  0.0000000E+00
  0.0000000E+00
  0.0000000E+00
  0.0000000E+00
  0.0000000E+00
  0.0000000E+00
  0.0000000E+00
  0.0000000E+00
  0.0000000E+00
  0.0000000E+00
  0.0000000E+00
  0.0000000E+00
  0.0000000E+00
  0.0000000E+00
  0.0000000E+00
  0.0000000E+00
  0.0000000E+00
  0.0000000E+00
  0.0000000E+00
  0.0000000E+00
  0.0000000E+00
  0.0000000E+00
  0.0000000E+00
  0.0000000E+00
  0.0000000E+00
  0.0000000E+00
  0.0000000E+00
  0.0000000E+00
  0.0000000E+00
  0.0000000E+00
  0.0000000E+00
  0.0000000E+00
  0.0000000E+00
  0.0000000E+00
  0.0000000E+00
  0.0000000E+00
  0.0000000E+00
  4.9230652E-03
  0.0000000E+00
  0.0000000E+00
  0.0000000E+00
  0.0000000E+00
  0.0000000E+00
  0.0000000E+00
  0.0000000E+00
  0.0000000E+00
  7.7878707E-03
  1.5448258E-02
  0.0000000E+00
  0.0000000E+00
  0.0000000E+00
  0.0000000E+00
  7.7878702E-03
  3.2936223E-02
  8.6087137E-02
  0.0000000E+00
  7.7878698E-03
  3.2936223E-02
  0.3480915    
  0.3480915    
  0.3480915    
  0.3480915    
  0.1366312    
  0.0000000E+00
  7.7878707E-03
  3.2936223E-02
  2.6927158E-02
  0.3480915    
  0.3480915    
  0.3480915    
  0.3480915    
  0.0000000E+00
  7.7878698E-03
  0.1743187    
  0.3480915    
  7.7878702E-03
  7.7878707E-03
  5.6208991E-02
  7.7878707E-03
  7.7878707E-03
  5.6208991E-02
  7.7878698E-03
  5.6208987E-02
  7.7878702E-03
  5.6208991E-02
  7.7878702E-03
  5.6208991E-02
  7.7878702E-03
  0.0000000E+00
  5.6208991E-02
  7.7878702E-03
  0.0000000E+00
  5.6208991E-02
  0.0000000E+00
  0.0000000E+00
  0.0000000E+00
  2.6942682E-03
  0.1451804    
  0.0000000E+00
  0.0000000E+00
  3.3094760E-02
  0.0000000E+00
  0.0000000E+00
  0.0000000E+00
  0.1695530    
  0.1695530    
  0.0000000E+00
  0.0000000E+00
  0.0000000E+00
  3.5791196E-02
  0.0000000E+00
  0.0000000E+00
  0.0000000E+00
  0.0000000E+00
  0.0000000E+00
  0.0000000E+00
  0.1695530    
  0.1695530    
  0.0000000E+00
  0.0000000E+00
  3.5791196E-02
  0.0000000E+00
  0.0000000E+00
  0.1695530    
  0.2402768    
  0.0000000E+00
  2.5419053E-02
  3.5791196E-02
  0.0000000E+00
  0.0000000E+00
  0.3838981    
  4.5349468E-03
  3.5791196E-02
  0.0000000E+00
  0.0000000E+00
  0.3838981    
  1.5930489E-02
  3.5791196E-02
  0.0000000E+00
  0.3838981    
  9.7510926E-03
  3.5791196E-02
  0.0000000E+00
  0.0000000E+00
  0.3838981    
  0.3838980    
  1.1766053E-02
  0.0000000E+00
  0.3838981    
  1.1343542E-02
  0.0000000E+00
  0.0000000E+00
  0.3838981    
  1.1343542E-02
  0.0000000E+00
  0.3854657    
  1.1343542E-02
  0.0000000E+00
  0.0000000E+00
  0.0000000E+00
  0.3868741    
  0.3868741    
  3.7763592E-02
  2.3569285E-03
  0.0000000E+00
  0.0000000E+00
  0.0000000E+00
  0.0000000E+00
  0.3868741    
  0.2197036    
  6.9431782E-02
  0.0000000E+00
  0.0000000E+00
  0.0000000E+00
  0.1000000    
  0.1141274    
  0.0000000E+00
  0.0000000E+00
  0.1000000    
  0.0000000E+00
  0.0000000E+00
  0.0000000E+00
  0.1000000    
  0.1000000    
  0.0000000E+00
  0.0000000E+00
  0.1000000    
  0.0000000E+00
  0.0000000E+00
  0.1000000    
  0.0000000E+00
  0.0000000E+00
  0.0000000E+00
  0.0000000E+00
  0.0000000E+00
  0.0000000E+00
  0.1000000    
  0.0000000E+00
  0.0000000E+00
  0.0000000E+00
  0.0000000E+00
  0.1000000    
  0.0000000E+00
  0.0000000E+00
  0.0000000E+00
  0.0000000E+00
  0.0000000E+00
  0.1000000    
  0.0000000E+00
  0.0000000E+00
  0.0000000E+00
  0.0000000E+00
  0.0000000E+00
  0.0000000E+00
  0.1000000    
  0.1000000    
  0.0000000E+00
  0.0000000E+00
  0.0000000E+00
  0.0000000E+00
  0.0000000E+00
  0.0000000E+00
  0.0000000E+00
  0.0000000E+00
  0.1000000    
  0.1000000    
  0.0000000E+00
  0.0000000E+00
  0.0000000E+00
  0.0000000E+00
  0.0000000E+00
  4.2551771E-02
  0.1000000    
  0.0000000E+00
  0.0000000E+00
  0.0000000E+00
  0.0000000E+00
  5.5608144E-03
  5.2358218E-02
  0.0000000E+00
  0.0000000E+00
  0.0000000E+00
  5.7962723E-02
  0.2070632    
  0.2384031    
  0.0000000E+00
  5.7962723E-02
  5.7962719E-02
  5.7962727E-02
  5.7962723E-02
  0.2476135    
  0.0000000E+00
  0.3380880    
  0.0000000E+00
  0.3380880    
  0.0000000E+00
  0.3380880    
  0.0000000E+00
  0.0000000E+00
  0.3380880    
  0.1328984    
  0.0000000E+00
  0.0000000E+00
  0.3380880    
  0.1544233    
  0.0000000E+00
  0.0000000E+00
  0.3358310    
  0.2883680    
  0.1544233    
  0.0000000E+00
  0.2883680    
  0.1544233    
  0.0000000E+00
  0.2883680    
  0.2883680    
  0.1544233    
  9.5505916E-02
  0.2883680    
  0.2883680    
  0.1544233    
  0.1660877    
  0.1544233    
  0.1660877    
  0.1544233    
  0.1544233    
  0.1660877    
  0.1544233    
  0.1660877    
  0.1660877    
  0.1544233    
  0.1544233    
  0.0000000E+00
  0.1660877    
  0.1660877    
  0.1544233    
  0.0000000E+00
  0.0000000E+00
  0.0000000E+00
  0.1660877    
  0.0000000E+00
  0.1544233    
  0.1544233    
  0.0000000E+00
  0.0000000E+00
  0.1088280    
  5.7856329E-02
  5.7856329E-02
  5.7856329E-02
  3.9640553E-02
  0.1544233    
  0.1544233    
  4.3384410E-02
  0.0000000E+00
  0.0000000E+00
  0.2054648    
  5.7856329E-02
  5.7856329E-02
  6.5612957E-02
  6.4673781E-02
  0.0000000E+00
  0.0000000E+00
  0.2054648    
  5.7856333E-02
  0.2054648    
  0.2054648    
  5.7856333E-02
  5.7856333E-02
  0.2054648    
  5.7856329E-02
  0.2054648    
  5.7856329E-02
  0.2054648    
  5.7856333E-02
  5.7856329E-02
  0.1577116    
  5.7856325E-02
  0.2054648    
  9.4924308E-02
  0.2062310    
  0.2932120    
  0.0000000E+00
  0.2957759    
  0.0000000E+00
  0.2957759    
  0.0000000E+00
  0.2957759    
  0.0000000E+00
  0.0000000E+00
  0.1297552    
  0.0000000E+00
  0.0000000E+00
  0.1790650    
  0.0000000E+00
  0.0000000E+00
  0.2583057    
  0.0000000E+00
  0.0000000E+00
  0.0000000E+00
  0.2583057    
  1.6883047E-02
  3.3743061E-02
  0.2583057    
  0.2583057    
  3.3743061E-02
  3.3743061E-02
  0.2583057    
  3.3743061E-02
  0.2583057    
  0.0000000E+00
  0.0000000E+00
  0.0000000E+00
  0.2336160    
  0.1436187    
  0.2296502    
  0.0000000E+00
  0.0000000E+00
  0.2336160    
  0.1721697    
  5.0961658E-02
  0.0000000E+00
  0.0000000E+00
  0.2336160    
  0.2336160    
  0.0000000E+00
  0.2336160    
  0.2336160    
  0.0000000E+00
  0.1979276    
  0.2336160    
  0.2336160    
  0.2201292    
  0.2201292    
  0.2201292    
  0.2044430    
  0.1229624    
  0.0000000E+00
  0.2044430    
  0.2044430    
  0.0000000E+00
  0.0000000E+00
  0.0000000E+00
  0.0000000E+00
  0.0000000E+00
  0.0000000E+00
  0.2044430    
  0.2044430    
  0.0000000E+00
  0.2044430    
  0.0000000E+00
  0.2044430    
  0.2044430    
  0.1920457    
  0.1253138    
  0.2044430    
  0.1985866    
  0.1979372    
  0.1920457    
  0.1985866    
  0.1985866    
  0.1985866    
  0.1746575    
  0.1746575    
  0.1697944    
  0.1746575    
  0.1746575    
  0.1746575    
  0.1746575    
  0.1746575    
  0.1746575    
  0.1746575    
  0.1746575    
  0.1746575    
  0.1746575    
  0.1746575    
  0.1746575    
  0.1746575    
  0.1746575    
  0.1746575    
  0.1746575    
