 Yearly Total Recharge Values for MODFLOW (m3)
 
 year:        1987
      0.0000      0.0000      0.0000      0.0000      0.0000      0.0000      0.0000      0.0000      0.0000      0.0000      0.0000      0.0000      0.0000      0.0000      0.0000      0.0000      0.0000      0.0000      0.0000      0.0000      0.0000      0.0000      0.0000      0.0000      0.0000      0.0000      0.0000      0.0000      0.0000      0.0000      0.0000      0.0000      0.0000      0.0000      0.0000      0.0000      0.0000      0.0000      0.0000      0.0000      0.0000      0.0000      0.0000      0.0000      0.0000      0.0000      0.0000      0.0000      0.0000      0.0000      0.0000      0.0000      0.0000      0.0000      0.0000      0.0000      0.0000      0.0000      0.0000      0.0000      0.0000      0.0000      0.0000      0.0000      0.0000      0.0000      0.0000      0.0000      0.0000      0.0000   1868.1998   8288.9668   6817.3667     42.7912      0.0000      0.0000
      0.0000      0.0000      0.0000      0.0000      0.0000      0.0000      0.0000      0.0000      0.0000      0.0000      0.0000      0.0000      0.0000      0.0000      0.0000      0.0000      0.0000      0.0000      0.0000      0.0000      0.0000      0.0000      0.0000      0.0000      0.0000      0.0000      0.0000      0.0000      0.0000      0.0000      0.0000      0.0000      0.0000      0.0000      0.0000      0.0000      0.0000      0.0000      0.0000      0.0000      0.0000      0.0000      0.0000      0.0000      0.0000      0.0000      0.0000      0.0000      0.0000      0.0000      0.0000      0.0000      0.0000      0.0000      0.0000      0.0000      0.0000      0.0000      0.0000      0.0000      0.0000      0.0000      0.0000      0.0000      0.0000      0.0000      0.0000      0.0000      0.0000   1727.3026   9537.2178  10436.8760  10436.8760   7201.4424   2331.5986      0.0000
      0.0000      0.0000      0.0000      0.0000      0.0000      0.0000      0.0000      0.0000      0.0000      0.0000      0.0000      0.0000      0.0000      0.0000      0.0000      0.0000      0.0000      0.0000      0.0000      0.0000      0.0000      0.0000      0.0000      0.0000      0.0000      0.0000      0.0000      0.0000      0.0000      0.0000      0.0000      0.0000      0.0000      0.0000      0.0000      0.0000      0.0000      0.0000      0.0000      0.0000      0.0000      0.0000      0.0000      0.0000      0.0000      0.0000      0.0000      0.0000      0.0000      0.0000      0.0000      0.0000      0.0000      0.0000      0.0000      0.0000      0.0000      0.0000      0.0000      0.0000      0.0000      0.0000      0.0000      0.0000      0.0000      0.0000      0.0000      0.0000   6183.8486   9816.9209  10436.8760  10436.8760  10436.8760  10436.8760  10101.8486    629.3432
      0.0000      0.0000      0.0000      0.0000      0.0000      0.0000      0.0000      0.0000      0.0000      0.0000      0.0000      0.0000      0.0000      0.0000      0.0000      0.0000      0.0000      0.0000      0.0000      0.0000      0.0000      0.0000      0.0000      0.0000      0.0000      0.0000      0.0000      0.0000      0.0000      0.0000      0.0000      0.0000      0.0000      0.0000      0.0000      0.0000      0.0000      0.0000      0.0000      0.0000      0.0000      0.0000      0.0000      0.0000      0.0000      0.0000      0.0000      0.0000      0.0000      0.0000      0.0000      0.0000      0.0000      0.0000      0.0000      0.0000      0.0000      0.0000      0.0000      0.0000      0.0000      0.0000      0.0000      0.0000      0.0000    641.5057    820.6567   2794.9958  10436.8760  10436.8760  10436.8760  10436.8760  10436.8760  10436.8760   5680.7905      0.0000
      0.0000      0.0000      0.0000      0.0000      0.0000      0.0000      0.0000      0.0000      0.0000      0.0000      0.0000      0.0000      0.0000      0.0000      0.0000      0.0000      0.0000      0.0000      0.0000      0.0000      0.0000      0.0000      0.0000      0.0000      0.0000      0.0000      0.0000      0.0000      0.0000      0.0000      0.0000      0.0000      0.0000      0.0000      0.0000      0.0000      0.0000      0.0000      0.0000      0.0000      0.0000      0.0000      0.0000      0.0000      0.0000      0.0000      0.0000      0.0000      0.0000      0.0000      0.0000      0.0000      0.0000      0.0000      0.0000      0.0000   1208.0245   1204.7010      0.0000      0.0000      0.0000      0.0000      0.0000    140.8477   1115.3212   3010.8853   2862.4956   7664.4219  10436.8760  10436.8760  10436.8760  10436.8760  10436.8760  10436.8760   5420.9102      0.0000
      0.0000      0.0000      0.0000      0.0000      0.0000      0.0000      0.0000      0.0000      0.0000      0.0000      0.0000      0.0000      0.0000      0.0000      0.0000      0.0000      0.0000      0.0000      0.0000      0.0000      0.0000      0.0000      0.0000      0.0000      0.0000      0.0000      0.0000      0.0000      0.0000      0.0000      0.0000      0.0000      0.0000      0.0000      0.0000      0.0000      0.0000      0.0000      0.0000      0.0000      0.0000      0.0000      0.0000      0.0000      0.0000      0.0000      0.0000      0.0000      0.0000      0.0000      0.0000      0.0000      0.0000      0.0000      0.0000   1890.9653   5375.4590   5295.7007   4496.4414   1106.6632    331.1580   2025.8550   1980.6146   2571.7534   3016.0120   3016.0120   3015.1072   9462.5137  10436.8760  10436.8760  10436.8760  10436.8760  10436.8760  10436.8760   9340.9990      0.0000
      0.0000      0.0000      0.0000      0.0000      0.0000      0.0000      0.0000      0.0000      0.0000      0.0000      0.0000      0.0000      0.0000      0.0000      0.0000      0.0000      0.0000      0.0000      0.0000      0.0000      0.0000      0.0000      0.0000      0.0000      0.0000      0.0000      0.0000      0.0000      0.0000      0.0000      0.0000      0.0000      0.0000      0.0000      0.0000      0.0000      0.0000      0.0000      0.0000      0.0000      0.0000      0.0000      0.0000      0.0000      0.0000      0.0000      0.0000      0.0000      0.0000      0.0000      0.0000      0.0000      0.0000      0.0000    278.0506   5457.4355   5538.8569   5538.8569   5538.8569   5115.1343   3365.0771   3016.0120   3016.0120   3016.0120   3016.0120   3016.0120   5590.3101  10436.8760  10436.8760  10436.8760  10436.8760  10436.8760  10436.8760  10436.8760  10239.6113   1268.0798
      0.0000      0.0000      0.0000      0.0000      0.0000      0.0000      0.0000      0.0000      0.0000      0.0000      0.0000      0.0000      0.0000      0.0000      0.0000      0.0000      0.0000      0.0000      0.0000      0.0000      0.0000      0.0000      0.0000      0.0000      0.0000      0.0000      0.0000      0.0000      0.0000      0.0000      0.0000      0.0000      0.0000      0.0000      0.0000      0.0000      0.0000      0.0000      0.0000      0.0000      0.0000      0.0000      0.0000      0.0000      0.0000      0.0000      0.0000      0.0000      0.0000      0.0000      0.0000      0.0000      0.0000   1359.2354   4734.6138   5538.8569   5538.8569   5538.8569   5538.8569   5538.8569   4162.6465   3016.0120   3016.0120   3016.0120   3016.0120   3016.0120   5590.3101  10436.8760  10436.8760  10436.8760  10436.8760  10436.8760  10436.8760  10436.8760  10430.6143   2987.0315
      0.0000      0.0000      0.0000      0.0000      0.0000      0.0000      0.0000      0.0000      0.0000      0.0000      0.0000      0.0000      0.0000      0.0000      0.0000      0.0000      0.0000      0.0000      0.0000      0.0000      0.0000      0.0000      0.0000      0.0000      0.0000      0.0000      0.0000      0.0000      0.0000      0.0000      0.0000      0.0000      0.0000      0.0000      0.0000      0.0000      0.0000      0.0000      0.0000      0.0000      0.0000      0.0000      0.0000      0.0000      0.0000      0.0000      0.0000      0.0000      0.0000      0.0000      0.0000      0.0000   1890.9653   5408.6914   5538.8569   5538.8569   5538.8569   5538.8569   5538.8569   5318.6133   3382.3291   3016.0120   3016.0120   3016.0120   3016.0120   3016.0120   8315.2520  10436.8760  10436.8760  10436.8760  10436.8760  10436.8760  10436.8760  10436.8760   5239.3096      0.0000
      0.0000      0.0000      0.0000      0.0000      0.0000      0.0000      0.0000      0.0000      0.0000      0.0000      0.0000      0.0000      0.0000      0.0000      0.0000      0.0000      0.0000      0.0000      0.0000      0.0000      0.0000      0.0000      0.0000      0.0000      0.0000      0.0000      0.0000      0.0000      0.0000      0.0000      0.0000      0.0000      0.0000      0.0000      0.0000      0.0000      0.0000      0.0000      0.0000      0.0000      0.0000      0.0000      0.0000      0.0000      0.0000      0.0000      0.0000      0.0000      0.0000      0.0000      0.0000      0.0000   2005.0658   5538.8569   5538.8569   5538.8569   5538.8569   5538.8569   5538.8569   4704.0454   3016.0120   3016.0120   3016.0120   3016.0120   3016.0120   6297.2310  10430.1992  10436.8760  10436.8760  10436.8760  10436.8760  10436.8760  10436.8760  10030.8779    416.4313      0.0000
      0.0000      0.0000      0.0000      0.0000      0.0000      0.0000      0.0000      0.0000      0.0000      0.0000      0.0000      0.0000      0.0000      0.0000      0.0000      0.0000      0.0000      0.0000      0.0000      0.0000      0.0000      0.0000      0.0000      0.0000      0.0000      0.0000      0.0000      0.0000      0.0000      0.0000      0.0000      0.0000      0.0000      0.0000      0.0000      0.0000      0.0000      0.0000      0.0000      0.0000      0.0000      0.0000      0.0000      0.0000      0.0000      0.0000      0.0000      0.0000      0.0000      0.0000      0.0000      0.0000   3580.3164   5538.8569   5538.8569   5538.8569   5538.8569   5538.8569   5538.8569   4151.5430   3016.0120   3016.0120   3016.0120   5576.7993  17073.0000  26232.6250  10867.2236  10436.8760  10436.8760  10436.8760  10436.8760  10436.8760  10436.8760  10363.8086   4661.1104      0.0000
      0.0000      0.0000      0.0000      0.0000      0.0000      0.0000      0.0000      0.0000      0.0000      0.0000      0.0000      0.0000      0.0000      0.0000      0.0000      0.0000      0.0000      0.0000      0.0000      0.0000      0.0000      0.0000      0.0000      0.0000      0.0000      0.0000      0.0000      0.0000      0.0000      0.0000      0.0000      0.0000      0.0000      0.0000      0.0000      0.0000      0.0000      0.0000      0.0000      0.0000      0.0000      0.0000      0.0000      0.0000      0.0000      0.0000      0.0000      0.0000      0.0000      0.0000      0.0000   7787.0654   5472.9419   5538.8569   5538.8569   5538.8569   5538.8569   5538.8569   5351.9141   3225.1550   3016.0120   3016.0120   3016.0120   3339.0403  28730.7148  29066.7656  26661.6562  15042.1787  10436.8760  10436.8760  10436.8760  10436.8760  10436.8760  10436.8760   9851.3584    450.8729
      0.0000      0.0000      0.0000      0.0000      0.0000      0.0000      0.0000      0.0000      0.0000      0.0000      0.0000      0.0000      0.0000      0.0000      0.0000      0.0000      0.0000      0.0000      0.0000      0.0000      0.0000      0.0000      0.0000      0.0000      0.0000      0.0000      0.0000      0.0000      0.0000      0.0000      0.0000      0.0000      0.0000      0.0000      0.0000      0.0000      0.0000      0.0000      0.0000      0.0000      0.0000      0.0000      0.0000      0.0000      0.0000      0.0000      0.0000      0.0000      0.0000  10108.4297  13506.9980  52006.1875  26379.1152   5852.5366  13954.3633   8636.4629   5538.8569   5538.8569   2615.6614   2408.5862   3016.0120   3016.0120   3016.0120  13256.5605  29066.7656  29066.7656  29066.7656  26151.1777  10436.8760  10436.8760  10436.8760  10436.8760  10436.8760  10436.8760  10436.8760   1477.8611
      0.0000      0.0000      0.0000      0.0000      0.0000      0.0000      0.0000      0.0000      0.0000      0.0000      0.0000      0.0000      0.0000      0.0000      0.0000      0.0000      0.0000      0.0000      0.0000      0.0000      0.0000      0.0000      0.0000      0.0000      0.0000      0.0000      0.0000      0.0000      0.0000      0.0000      0.0000      0.0000      0.0000      0.0000      0.0000      0.0000      0.0000      0.0000      0.0000      0.0000      0.0000      0.0000      0.0000      0.0000      0.0000      0.0000      0.0000   3878.6245  31579.9785  54022.5664  54551.6875  54551.6875  54551.6875  42068.1133  54551.6875  49018.1250  24678.3633   5518.7021    150.1030    433.4009   3009.6768   3016.0120   6129.7944  23025.5957  29066.7656  29066.7656  29066.7656  27047.2871  12248.8633  10436.8760  10436.8760  10436.8760  10436.8760  10436.8760   8116.7544      0.0000
      0.0000      0.0000      0.0000      0.0000      0.0000      0.0000      0.0000      0.0000      0.0000      0.0000      0.0000      0.0000      0.0000      0.0000      0.0000      0.0000      0.0000      0.0000      0.0000      0.0000      0.0000      0.0000      0.0000      0.0000      0.0000      0.0000      0.0000      0.0000      0.0000      0.0000      0.0000      0.0000      0.0000      0.0000      0.0000      0.0000      0.0000      0.0000      0.0000      0.0000      0.0000      0.0000      0.0000      0.0000      0.0000      0.0000      0.0000  12716.0039  54551.6875  54551.6875  54551.6875  54551.6875  54551.6875  54551.6875  54551.6875  54551.6875  54551.6875  36867.7266      0.0000      0.0000  17739.3262  34322.0742  46363.2422  29066.7656  29066.7656  29066.7656  29066.7656  28595.1562  13859.8027  12444.4814  11176.2295  10476.4795  10436.8760  10436.8760  10145.6836    122.1114
      0.0000      0.0000      0.0000      0.0000      0.0000      0.0000      0.0000      0.0000      0.0000      0.0000      0.0000      0.0000      0.0000      0.0000      0.0000      0.0000      0.0000      0.0000      0.0000      0.0000      0.0000      0.0000      0.0000      0.0000      0.0000      0.0000      0.0000      0.0000      0.0000      0.0000      0.0000      0.0000      0.0000      0.0000      0.0000      0.0000      0.0000      0.0000      0.0000      0.0000      0.0000      0.0000      0.0000      0.0000      0.0000      0.0000      0.0000  11357.6572  54453.5234  54551.6875  54551.6875  54551.6875  54551.6875  54551.6875  54551.6875  54551.6875  50542.1484  21258.7910      0.0000      0.0000  12141.3857  44230.2383  24995.3711  29066.7656  29066.7656  29066.7656  29066.7656  24106.8555  13025.6592  13025.6592  13025.6592  11804.0205  10436.8760  10436.8760   7669.0146      0.0000
      0.0000      0.0000      0.0000      0.0000      0.0000      0.0000      0.0000      0.0000      0.0000      0.0000      0.0000      0.0000      0.0000      0.0000      0.0000      0.0000      0.0000      0.0000      0.0000      0.0000      0.0000      0.0000      0.0000      0.0000      0.0000      0.0000      0.0000      0.0000      0.0000      0.0000      0.0000      0.0000      0.0000      0.0000      0.0000      0.0000      0.0000      0.0000      0.0000      0.0000      0.0000      0.0000      0.0000      0.0000      0.0000      0.0000   1723.8331  34100.2500  54551.6875  54551.6875  54551.6875  54551.6875  54551.6875  54551.6875  54551.6875  49194.7070  10452.0996      0.0000      0.0000      0.0000  60377.0781  62065.6133  22297.5859  29066.7656  29066.7656  29066.7656  29066.7656  25667.6426  13043.3076  13025.6592  13025.6592  12391.1504  10436.8760  10338.7617   4185.1860      0.0000
      0.0000      0.0000      0.0000      0.0000      0.0000      0.0000      0.0000      0.0000      0.0000      0.0000      0.0000      0.0000      0.0000      0.0000      0.0000      0.0000      0.0000      0.0000      0.0000      0.0000      0.0000      0.0000      0.0000      0.0000      0.0000      0.0000      0.0000      0.0000      0.0000      0.0000      0.0000      0.0000      0.0000      0.0000      0.0000      0.0000      0.0000      0.0000      0.0000      0.0000      0.0000      0.0000      0.0000    382.4403  27828.1562  21799.0996  36951.4844  54551.6875  54551.6875  54551.6875  54551.6875  54551.6875  54551.6875  54551.6875  53422.4570  12186.8438      0.0000      0.0000  18430.6562  93699.7266 143170.9688 145969.0312 122619.4375  60437.4258  29066.7656  29066.7656  29066.7656  27291.0273  13330.4404  13025.6592  13025.6592  12309.5996  10436.8760   5728.7979      0.0000      0.0000
      0.0000      0.0000      0.0000      0.0000      0.0000      0.0000      0.0000      0.0000      0.0000      0.0000      0.0000      0.0000      0.0000      0.0000      0.0000      0.0000      0.0000      0.0000      0.0000      0.0000      0.0000      0.0000      0.0000      0.0000      0.0000      0.0000      0.0000      0.0000      0.0000      0.0000      0.0000      0.0000      0.0000      0.0000      0.0000      0.0000      0.0000      0.0000      0.0000      0.0000      0.0000      0.0000      0.0000  24288.7012  74988.3203  74988.3203  66386.5234  54860.3047  54551.6875  54551.6875  58673.8047  67646.7578  63594.8516  67286.7422   9374.1035      0.0000      0.0000      0.0000 151158.1875 191387.8594 191387.8594 191387.8594 191387.8594 190413.9062 175512.8906  57716.4336  29066.7656  17066.4121  13025.6592  13025.6592  13025.6592  10163.9453   1440.2886     90.8008      0.0000      0.0000
      0.0000      0.0000      0.0000      0.0000      0.0000      0.0000      0.0000      0.0000      0.0000      0.0000      0.0000      0.0000      0.0000      0.0000      0.0000      0.0000      0.0000      0.0000      0.0000      0.0000      0.0000      0.0000      0.0000      0.0000      0.0000      0.0000      0.0000      0.0000      0.0000      0.0000      0.0000      0.0000      0.0000      0.0000      0.0000      0.0000      0.0000      0.0000      0.0000      0.0000      0.0000      0.0000      0.0000   3726.9182  74403.3594  74988.3203  74988.3203  60825.7070  54551.6875  56584.2188  92989.5469  98450.6172  97116.0938  97678.0078  68423.1953  22279.3711      0.0000  35406.7461 161397.2969 191387.8594 191387.8594 191387.8594 191387.8594 191387.8594 191387.8594 147563.9844  21272.3887  13210.1416  13025.6592  13025.6592  13025.6592   1474.5048      0.0000      0.0000      0.0000      0.0000
      0.0000      0.0000      0.0000      0.0000      0.0000      0.0000      0.0000      0.0000      0.0000      0.0000      0.0000      0.0000      0.0000      0.0000      0.0000      0.0000      0.0000      0.0000      0.0000      0.0000      0.0000      0.0000      0.0000      0.0000      0.0000      0.0000      0.0000      0.0000      0.0000      0.0000      0.0000      0.0000      0.0000      0.0000      0.0000      0.0000      0.0000      0.0000      0.0000      0.0000      0.0000      0.0000      0.0000  35784.4062  74988.3203  74988.3203  74988.3203  68900.1875  58146.9961  85140.4766  98450.6172  98450.6172  98450.6172  98450.6172  98450.6172  97840.2188  75672.2109 187399.9375 191387.8594 191387.8594 191387.8594 191387.8594 191387.8594 191387.8594 191387.8594 181863.3906  33412.4688  13025.6592  13025.6592  13025.6592  11962.7715    251.3953      0.0000      0.0000      0.0000      0.0000
      0.0000      0.0000      0.0000      0.0000      0.0000      0.0000      0.0000      0.0000      0.0000      0.0000      0.0000      0.0000      0.0000      0.0000      0.0000      0.0000      0.0000      0.0000      0.0000      0.0000      0.0000      0.0000      0.0000      0.0000      0.0000      0.0000      0.0000      0.0000      0.0000      0.0000      0.0000      0.0000      0.0000      0.0000      0.0000      0.0000      0.0000      0.0000      0.0000      0.0000      0.0000      0.0000  25091.0762  74943.2812  74988.3203  74988.3203  74988.3203  74969.8906  83006.1641  98150.3281  98450.6172  98450.6172  98450.6172  98450.6172  98450.6172  98450.6172  98450.6172 150904.4219 191387.8594 191387.8594 191387.8594 191387.8594 191387.8594 191387.8594 191387.8594 191387.8594  72313.2734  13025.6592  13025.6592  13025.6592   7329.5415      0.0000      0.0000      0.0000      0.0000      0.0000
      0.0000      0.0000      0.0000      0.0000      0.0000      0.0000      0.0000      0.0000      0.0000      0.0000      0.0000      0.0000      0.0000      0.0000      0.0000      0.0000      0.0000      0.0000      0.0000      0.0000      0.0000      0.0000      0.0000      0.0000      0.0000      0.0000      0.0000      0.0000      0.0000      0.0000      0.0000      0.0000      0.0000      0.0000      0.0000      0.0000      0.0000      0.0000      0.0000      0.0000      0.0000      0.0000  35124.5078  74988.3203  74988.3203  74988.3203  74988.3203  74988.3203  74965.8281  95855.6719  98450.6172  98450.6172  98450.6172  98450.6172  98450.6172  98450.6172  98450.6172 165486.3125 191387.8594 191387.8594 191387.8594 191387.8594 191387.8594 191387.8594 191387.8594 191387.8594 166409.3594  23382.9707  13186.5312  13184.5527   7568.0132      0.0000      0.0000      0.0000      0.0000      0.0000
      0.0000      0.0000      0.0000      0.0000      0.0000      0.0000      0.0000      0.0000      0.0000      0.0000      0.0000      0.0000      0.0000      0.0000      0.0000      0.0000      0.0000      0.0000      0.0000      0.0000      0.0000      0.0000      0.0000      0.0000      0.0000      0.0000      0.0000      0.0000      0.0000      0.0000      0.0000      0.0000      0.0000      0.0000      0.0000      0.0000      0.0000      0.0000     33.1689   3177.5796   3845.3774   2576.1162  41386.8906  74988.3203  74988.3203  74988.3203  74988.3203  74988.3203  74988.3203  93300.6328  98450.6172  98450.6172  98450.6172  98450.6172  98450.6172  98450.6172  98450.6172 121852.2969 191387.8594 191387.8594 191387.8594 191387.8594 191387.8594 191387.8594 191387.8594 178834.6094 144915.2969  33925.9023  31436.5723  25486.2676  22264.0938      0.0000      0.0000      0.0000      0.0000      0.0000
      0.0000      0.0000      0.0000      0.0000      0.0000      0.0000      0.0000      0.0000      0.0000      0.0000      0.0000      0.0000      0.0000      0.0000      0.0000      0.0000      0.0000      0.0000      0.0000      0.0000      0.0000      0.0000      0.0000      0.0000      0.0000      0.0000      0.0000      0.0000      0.0000      0.0000      0.0000      0.0000      0.0000      0.0000   1111.5262   5654.9258   3094.2874   5531.0952   6913.1333   7370.8623   7370.8623  21367.6621  74379.7344  74988.3203  74988.3203  74988.3203  74988.3203  74988.3203  75990.1250  94213.3047  98450.6172  98450.6172  98450.6172  98450.6172  98450.6172  98450.6172  98450.6172 132642.2344 191387.8594 191387.8594 191387.8594 191387.8594  99330.1875  66789.8516 115434.0156  37546.3477  32886.3906  32886.3906  32886.3906  32886.3906  25509.9707      0.0000      0.0000      0.0000      0.0000      0.0000
      0.0000      0.0000      0.0000      0.0000      0.0000      0.0000      0.0000      0.0000      0.0000      0.0000      0.0000      0.0000      0.0000      0.0000      0.0000      0.0000      0.0000      0.0000      0.0000      0.0000      0.0000      0.0000      0.0000      0.0000      0.0000      0.0000      0.0000      0.0000      0.0000      0.0000      0.0000      0.0000      0.0000      0.0000   4934.7896   7370.8623   7370.8623   7370.8623   7370.8623   7370.8623   7370.8623  34431.3477  74988.3203  74988.3203  74988.3203  74988.3203  74988.3203  74988.3203  81994.1094  98450.6172  98450.6172  98450.6172  98450.6172  98450.6172  98450.6172  98450.6172 103971.1328 183274.5000 191387.8594 143824.3125 121569.3125 125890.9922  31327.8750  32886.3906  32886.3906  32886.3906  32886.3906  32886.3906  32886.3906  32886.3906  32054.3652   7593.4688      0.0000      0.0000      0.0000      0.0000
      0.0000      0.0000      0.0000      0.0000      0.0000      0.0000      0.0000      0.0000      0.0000      0.0000      0.0000      0.0000      0.0000      0.0000      0.0000      0.0000      0.0000      0.0000      0.0000      0.0000      0.0000      0.0000      0.0000      0.0000      0.0000      0.0000      0.0000      0.0000      0.0000      0.0000      0.0000      0.0000      0.0000    939.7850   7272.0928   7370.8623   7370.8623   7370.8623   7370.8623   7370.8623   7370.8623  32159.4043  74988.3203  74988.3203  74988.3203  74988.3203  74988.3203  74988.3203  79593.9453  90412.4062  95543.6250  98450.6172  98450.6172  98450.6172  98450.6172  98450.6172  98450.6172 164231.6250 121551.0469   9581.7002   8521.0742   8521.0742  11971.2002  27842.7617  32886.3906  32886.3906  32886.3906  32886.3906  32886.3906  32886.3906  32886.3906  16518.8281      0.0000      0.0000      0.0000      0.0000
      0.0000      0.0000      0.0000      0.0000      0.0000      0.0000      0.0000      0.0000      0.0000      0.0000      0.0000      0.0000      0.0000      0.0000      0.0000      0.0000      0.0000      0.0000      0.0000      0.0000      0.0000      0.0000      0.0000      0.0000      0.0000      0.0000      0.0000      0.0000      0.0000      0.0000      0.0000      0.0000      0.0000   1962.1238   7370.8623   7370.8623   7370.8623   7370.8623   7370.8623   7370.8623   8063.2466  11660.0381  74916.4922  74988.3203  74988.3203  74988.3203  74988.3203  74988.3203  74988.3203  74988.3203  78155.6641  96620.5391  98450.6172  98450.6172  98450.6172  98450.6172  98450.6172 102709.9062  14171.6592   8521.0742   8521.0742   8521.0742   8521.0742  17740.9043  32886.3906  32886.3906  32886.3906  32886.3906  32886.3906  32886.3906  32886.3906  26453.8145      0.0000      0.0000      0.0000      0.0000
      0.0000      0.0000      0.0000      0.0000      0.0000      0.0000      0.0000      0.0000      0.0000      0.0000      0.0000      0.0000      0.0000      0.0000      0.0000      0.0000      0.0000      0.0000      0.0000      0.0000      0.0000      0.0000      0.0000      0.0000      0.0000      0.0000      0.0000      0.0000      0.0000      0.0000      0.0000      0.0000      0.0000    642.7393   7345.8003   7370.8623   7370.8623   7370.8623   7370.8623   9189.6455  14398.5342  15176.7900  54550.7188  74988.3203  74988.3203  74988.3203  74988.3203  74988.3203  74988.3203  74988.3203  74988.3203  86766.3906  98450.6172  98450.6172  98450.6172  98450.6172  98450.6172  46858.0352   8521.0742   8521.0742   8521.0742   8521.0742   8521.0742   8514.2607  25888.6699  32886.3906  32886.3906  32886.3906  32886.3906  32886.3906  28847.9414  11431.3076      0.0000      0.0000      0.0000      0.0000
      0.0000      0.0000      0.0000      0.0000      0.0000      0.0000      0.0000      0.0000      0.0000      0.0000      0.0000      0.0000      0.0000      0.0000      0.0000      0.0000      0.0000      0.0000      0.0000      0.0000      0.0000      0.0000      0.0000      0.0000      0.0000      0.0000      0.0000      0.0000      0.0000      0.0000      0.0000      0.0000      0.0000      0.0000   6624.1943   7370.8623   7370.8623   7370.8623   8705.6729  14706.0889  15176.7900  15176.7900  21032.3281  62930.3008  74898.5391  74988.3203  74988.3203  74988.3203  74988.3203  74988.3203  74988.3203  87322.3984  98450.6172  98450.6172  98450.6172  98450.6172  98450.6172  28188.6602   8521.0742   8521.0742   8521.0742   8521.0742   8521.0742   8630.7227  22048.7090  30437.6758  32886.3906  32827.2031  23326.3145  21205.1387   1200.3531      0.0000      0.0000      0.0000      0.0000      0.0000
      0.0000      0.0000      0.0000      0.0000      0.0000      0.0000      0.0000      0.0000      0.0000      0.0000      0.0000      0.0000      0.0000      0.0000      0.0000      0.0000      0.0000      0.0000      0.0000      0.0000      0.0000      0.0000      0.0000      0.0000      0.0000      0.0000      0.0000      0.0000      0.0000      0.0000      0.0000      0.0000      0.0000      0.0000   5845.8320   7370.8623   7370.8623   7370.8623  11691.4395  15176.7900  15176.7900  15176.7900  15176.7900  15176.7900  32294.8340  73373.3984  74988.3203  74988.3203  74988.3203  74988.3203  74988.3203  89729.6406  98450.6172  98450.6172  96580.0938  83252.4609  52577.5781  12163.2246   8521.0742   8521.0742   8521.0742   8521.0742   8521.0742   8521.0742   8521.0742  11766.5361  20165.2598  23853.6895   1632.1598      0.0000      0.0000      0.0000      0.0000      0.0000      0.0000      0.0000
      0.0000      0.0000      0.0000      0.0000      0.0000      0.0000      0.0000      0.0000      0.0000      0.0000      0.0000      0.0000      0.0000      0.0000      0.0000      0.0000      0.0000      0.0000      0.0000      0.0000      0.0000      0.0000      0.0000      0.0000      0.0000      0.0000      0.0000      0.0000      0.0000      0.0000      0.0000      0.0000      0.0000      0.0000   3653.7358   6874.0659   7370.8623   8177.2163  14189.3398  15176.7900  15176.7900  15176.7900  15176.7900  15176.7900  15176.7900  42214.7617  95074.1641  80488.3516  74988.3203  74988.3203  74988.3203  93234.9688  98450.6172  98450.6172  57811.4492  11003.1309   8521.0742   8521.0742   8521.0742   8521.0742   8521.0742   8521.0742   8521.0742   8521.0742   8521.0742   8521.0742   8521.0742   8521.0742   6731.6509    403.8991      0.0000      0.0000      0.0000      0.0000      0.0000      0.0000
      0.0000      0.0000      0.0000      0.0000      0.0000      0.0000      0.0000      0.0000      0.0000      0.0000      0.0000      0.0000      0.0000      0.0000      0.0000      0.0000      0.0000      0.0000      0.0000      0.0000      0.0000      0.0000      0.0000      0.0000      0.0000      0.0000      0.0000      0.0000      0.0000      0.0000      0.0000      0.0000      0.0000      0.0000      0.0000   1032.6580   5785.3887  12566.4873  15176.7900  15176.7900  15176.7900  15176.7900  15176.7900  15176.7900  15176.7900  21804.4648 177374.7344 152855.1406  74988.3203  74988.3203  74988.3203  95832.1719  98450.6172  98450.6172  96013.4766  17073.3730   8521.0742   8521.0742   8521.0742   8521.0742   8521.0742   8521.0742   8521.0742   8521.0742   8521.0742   8521.0742   8521.0742   7168.7837   2449.8101      0.0000      0.0000      0.0000      0.0000      0.0000      0.0000      0.0000
      0.0000      0.0000      0.0000      0.0000      0.0000      0.0000      0.0000      0.0000      0.0000      0.0000      0.0000      0.0000      0.0000      0.0000      0.0000      0.0000      0.0000      0.0000      0.0000      0.0000      0.0000      0.0000      0.0000      0.0000      0.0000      0.0000      0.0000      0.0000      0.0000      0.0000      0.0000      0.0000      0.0000      0.0000      0.0000      0.0000    867.8954  13201.5020  15176.7900  15176.7900  15176.7900  15176.7900  15176.7900  15176.7900  17527.1758 133797.3594 196177.8438 221864.1250  82554.6797  78040.7734  85316.3594  98366.1953  98450.6172  98450.6172  65608.3750   8521.0742   8521.0742   8521.0742   8521.0742   8521.0742   8521.0742   8521.0742   8521.0742   8521.0742   8521.0742   8521.0742   7221.6133   1170.7959      0.0000      0.0000      0.0000      0.0000      0.0000      0.0000      0.0000      0.0000
      0.0000      0.0000      0.0000      0.0000      0.0000      0.0000      0.0000      0.0000      0.0000      0.0000      0.0000      0.0000      0.0000      0.0000      0.0000      0.0000      0.0000      0.0000      0.0000      0.0000      0.0000      0.0000      0.0000      0.0000      0.0000      0.0000      0.0000      0.0000      0.0000      0.0000      0.0000      0.0000      0.0000      0.0000      0.0000      0.0000      0.0000   1476.7010   4660.7881   6969.1807  12976.1543  17448.9395  28946.0977  15167.6797  56658.0000 226923.5625 226923.5625 226923.5625 179586.0000  96012.8438  98450.6172  98450.6172  90965.2891  44834.1055  16174.3721   8685.5176   8521.0742   8521.0742   8521.0742   8521.0742   8521.0742   8521.0742   8521.0742   8521.0742   8521.0742   8521.0742   5529.3271      0.0000      0.0000      0.0000      0.0000      0.0000      0.0000      0.0000      0.0000      0.0000
      0.0000      0.0000      0.0000      0.0000      0.0000      0.0000      0.0000      0.0000      0.0000      0.0000      0.0000      0.0000      0.0000      0.0000      0.0000      0.0000      0.0000      0.0000      0.0000      0.0000      0.0000      0.0000      0.0000      0.0000      0.0000      0.0000      0.0000      0.0000      0.0000      0.0000      0.0000      0.0000      0.0000      0.0000      0.0000      0.0000      0.0000      0.0000      0.0000      0.0000  60143.8203 153687.7031 162458.3281 149188.9219 163806.3906 226611.2344 226923.5625 226923.5625 225985.7500 151792.5312  95707.5312  63381.5977  21087.2500   8805.9111   8805.9111   8798.8701   8325.7100   7995.0605   8518.4883   8521.0742   8438.1553   8469.2510   8521.0742   8521.0742   8521.0742   6596.1670    388.5610      0.0000      0.0000      0.0000      0.0000      0.0000      0.0000      0.0000      0.0000      0.0000
      0.0000      0.0000      0.0000      0.0000      0.0000      0.0000      0.0000      0.0000      0.0000      0.0000      0.0000      0.0000      0.0000      0.0000      0.0000      0.0000      0.0000      0.0000      0.0000      0.0000      0.0000      0.0000      0.0000      0.0000      0.0000      0.0000      0.0000      0.0000      0.0000      0.0000      0.0000      0.0000      0.0000      0.0000      0.0000      0.0000      0.0000      0.0000      0.0000      0.0000 124523.9453 166654.1719 166654.1719 166654.1719 175824.9844 224019.9375 224702.1562 225485.5938 226923.5625 221555.5156  60572.0508   8805.9111   8805.9111   8805.9111   8805.9111   8805.9111   7465.6670   5641.9600   6372.6768   7396.2080   6289.7603   6180.0640   6878.8276   8035.3706   7691.6035   3423.5427      0.0000      0.0000      0.0000      0.0000      0.0000      0.0000      0.0000      0.0000      0.0000      0.0000
      0.0000      0.0000      0.0000      0.0000      0.0000      0.0000      0.0000      0.0000      0.0000      0.0000      0.0000      0.0000      0.0000      0.0000      0.0000      0.0000      0.0000      0.0000      0.0000      0.0000      0.0000      0.0000      0.0000      0.0000      0.0000      0.0000      0.0000      0.0000      0.0000      0.0000      0.0000      0.0000      0.0000      0.0000      0.0000      0.0000      0.0000      0.0000      0.0000      0.0000   9915.9268 141372.7812 166654.1719 166654.1719 166654.1719 199842.6250 223522.7344 224398.0938 205683.7969 127008.9609   8805.9111   8805.9111   8805.9111   8805.9111   8805.9111   8805.9111   7899.4434   5641.9600   5641.9600   5641.9600   5641.9600   5641.9600   5641.9600   5641.9600   5641.9600   3458.5203      0.0000      0.0000      0.0000      0.0000      0.0000      0.0000      0.0000      0.0000      0.0000      0.0000
      0.0000      0.0000      0.0000      0.0000      0.0000      0.0000      0.0000      0.0000      0.0000      0.0000      0.0000      0.0000      0.0000      0.0000      0.0000      0.0000      0.0000      0.0000      0.0000      0.0000      0.0000      0.0000      0.0000      0.0000      0.0000      0.0000      0.0000      0.0000      0.0000      0.0000      0.0000      0.0000      0.0000      0.0000      0.0000      0.0000      0.0000      0.0000      0.0000      0.0000      0.0000      0.0000  66711.7188 114258.1484 166604.1562 169474.8906 201770.4688 216681.3281 223500.2656 130141.5938   8805.9111   8805.9111   8805.9111   8805.9111   8805.9111   8805.9111   8045.6196   5641.9600   5641.9600   5641.9600   5641.9600   5641.9600   5641.9600   5641.9600   5641.9600   2275.4016      0.0000      0.0000      0.0000      0.0000      0.0000      0.0000      0.0000      0.0000      0.0000      0.0000
      0.0000      0.0000      0.0000      0.0000      0.0000      0.0000      0.0000      0.0000      0.0000      0.0000      0.0000      0.0000      0.0000      0.0000      0.0000      0.0000      0.0000      0.0000      0.0000      0.0000      0.0000      0.0000      0.0000      0.0000      0.0000      0.0000      0.0000      0.0000      0.0000      0.0000      0.0000      0.0000      0.0000      0.0000      0.0000      0.0000      0.0000      0.0000      0.0000      0.0000      0.0000      0.0000      0.0000  38730.4531 166654.1719 166654.1719 166654.1719 190948.3125 223522.7344 221139.1406 153825.4062 163745.4062 163230.1406 117108.9766  77236.1328  61454.4609  25469.1562   6557.0581   5641.9600   5641.9600   5641.9600   5641.9600   5641.9600   5641.9600   4296.9150    436.6874      0.0000      0.0000      0.0000      0.0000      0.0000      0.0000      0.0000      0.0000      0.0000      0.0000
      0.0000      0.0000      0.0000      0.0000      0.0000      0.0000      0.0000      0.0000      0.0000      0.0000      0.0000      0.0000      0.0000      0.0000      0.0000      0.0000      0.0000      0.0000      0.0000      0.0000      0.0000      0.0000      0.0000      0.0000      0.0000      0.0000      0.0000      0.0000      0.0000      0.0000      0.0000      0.0000      0.0000      0.0000      0.0000      0.0000      0.0000      0.0000      0.0000      0.0000      0.0000      0.0000      0.0000  35230.7266 166654.1719 166654.1719 166654.1719 209953.8906 223522.7344 223522.7344 223522.7344 223522.7344 223522.7344 223522.7344 223522.7344 223522.7344 223522.7344  52916.8281   5641.9600   5641.9600   6095.3906   7520.0820   8043.2754   8799.7646    291.6893      0.0000      0.0000      0.0000      0.0000      0.0000      0.0000      0.0000      0.0000      0.0000      0.0000      0.0000
      0.0000      0.0000      0.0000      0.0000      0.0000      0.0000      0.0000      0.0000      0.0000      0.0000      0.0000      0.0000      0.0000      0.0000      0.0000      0.0000      0.0000      0.0000      0.0000      0.0000      0.0000      0.0000      0.0000      0.0000      0.0000      0.0000      0.0000      0.0000      0.0000      0.0000      0.0000      0.0000      0.0000      0.0000      0.0000      0.0000      0.0000      0.0000      0.0000      0.0000      0.0000      0.0000      0.0000  79277.4531 166654.1719 166654.1719 166654.1719 209561.3281 223522.7344 223522.7344 223522.7344 223522.7344 223522.7344 223522.7344 223522.7344 223522.7344 185300.1875   1219.1306   6418.3159   9231.8584  17580.1328  19057.1367  19057.1367  18820.8262   1983.8483      0.0000      0.0000      0.0000      0.0000      0.0000      0.0000      0.0000      0.0000      0.0000      0.0000      0.0000
      0.0000      0.0000      0.0000      0.0000      0.0000      0.0000      0.0000      0.0000      0.0000      0.0000      0.0000      0.0000      0.0000      0.0000      0.0000      0.0000      0.0000      0.0000      0.0000      0.0000      0.0000      0.0000      0.0000      0.0000      0.0000      0.0000      0.0000  13726.9795   8094.9502      0.0000      0.0000      0.0000      0.0000      0.0000      0.0000      0.0000      0.0000      0.0000     66.0227   1672.5748      0.0000      0.0000  53612.6719 164804.3594 166654.1719 166654.1719 166654.1719 203846.1875 223522.7344 223522.7344 223522.7344 223522.7344 223522.7344 223522.7344 223522.7344 218180.3125  48079.7148   2237.3071  18228.1523  18996.7598  19057.1367  19057.1367  19057.1367  19057.1367  18542.5938   7925.8633     34.3028      0.0000      0.0000      0.0000      0.0000      0.0000      0.0000      0.0000      0.0000      0.0000
      0.0000      0.0000      0.0000      0.0000      0.0000      0.0000      0.0000      0.0000      0.0000      0.0000      0.0000      0.0000      0.0000      0.0000      0.0000      0.0000      0.0000      0.0000      0.0000      0.0000      0.0000      0.0000      0.0000      0.0000      0.0000      0.0000  49470.1094  85124.9688  84639.4141   9763.3662      0.0000      0.0000      0.0000      0.0000      0.0000      0.0000      0.0000   2577.3306  16818.6699  13439.2832      0.0000      0.0000   7782.7466 116391.3906 166654.1719 166654.1719 182782.1406 221685.7812 223522.7344 223522.7344 223522.7344 221108.4844 222494.3594 220929.7188 159572.7500  55344.1797      0.0000   8571.9014  19057.1367  19057.1367  19057.1367  19057.1367  19057.1367  19057.1367  19057.1367  19057.1367   2870.0051      0.0000      0.0000      0.0000      0.0000      0.0000      0.0000      0.0000      0.0000      0.0000
      0.0000      0.0000      0.0000      0.0000      0.0000      0.0000      0.0000      0.0000      0.0000      0.0000      0.0000      0.0000      0.0000      0.0000      0.0000      0.0000      0.0000      0.0000      0.0000      0.0000      0.0000      0.0000      0.0000      0.0000      0.0000  12658.8340  87711.4844  88276.3672  88276.3672  69314.6172  30005.1660  11520.0674   9560.3350      0.0000      0.0000    264.0907   1437.8278  21572.3027  22824.2930   2912.3345      0.0000      0.0000   7849.4126 147172.3594 166654.1719 166654.1719 190550.2500 223522.7344 223522.7344 197102.3281  72309.5781  24766.3066  14193.6816  27090.9414      0.0000      0.0000      0.0000  10607.2021  19057.1367  19057.1367  19057.1367  19057.1367  19057.1367  19057.1367  19057.1367  19057.1367   5105.4092      0.0000      0.0000      0.0000      0.0000      0.0000      0.0000      0.0000      0.0000      0.0000
      0.0000      0.0000      0.0000      0.0000      0.0000      0.0000      0.0000      0.0000      0.0000      0.0000      0.0000      0.0000      0.0000      0.0000      0.0000      0.0000      0.0000      0.0000      0.0000      0.0000      0.0000      0.0000      0.0000      0.0000      0.0000  44773.7930  88276.3672  88276.3672  88276.3672  88276.3672  88276.3672  88117.5469  69923.7891  12049.7324      0.0000  14994.4922  23264.4395  24452.8418  10595.4189      0.0000      0.0000      0.0000  97409.4609 166654.1719 166654.1719 166654.1719 181684.5625 220224.2656 223522.7344 103379.2188      0.0000      0.0000      0.0000      0.0000      0.0000      0.0000     22.8686  15884.1240  19057.1367  19057.1367  19057.1367  19057.1367  19057.1367  19057.1367  19057.1367  19057.1367  18982.8105   9048.3281      0.0000      0.0000      0.0000      0.0000      0.0000      0.0000      0.0000      0.0000
      0.0000      0.0000      0.0000      0.0000      0.0000      0.0000      0.0000      0.0000      0.0000      0.0000      0.0000      0.0000      0.0000      0.0000      0.0000      0.0000      0.0000      0.0000      0.0000      0.0000      0.0000      0.0000      0.0000      0.0000      0.0000  56029.0430  88276.3672  88276.3672  88276.3672  88276.3672  88276.3672  88276.3672  88276.3672  83465.3750  53988.9453  23767.2012  24452.8418  24267.0098   2726.4922      0.0000      0.0000      0.0000 136656.4531 166654.1719 166654.1719 166654.1719 161537.9688 108097.5547 169631.2500  32947.2344      0.0000      0.0000      0.0000      0.0000      0.0000      0.0000   6111.6235  19057.1367  19057.1367  19057.1367  19057.1367  19057.1367  19057.1367  19057.1367  19057.1367  16798.8652  13724.9502   6027.7734      0.0000      0.0000      0.0000      0.0000      0.0000      0.0000      0.0000      0.0000
      0.0000      0.0000      0.0000      0.0000      0.0000      0.0000      0.0000      0.0000      0.0000      0.0000      0.0000      0.0000      0.0000      0.0000      0.0000      0.0000      0.0000      0.0000      0.0000      0.0000      0.0000      0.0000      0.0000      0.0000      0.0000  70223.8828  88276.3672  88276.3672  88276.3672  88276.3672  88276.3672  88276.3672  88276.3672  88276.3672  85276.7188  24510.2812  24452.8418  24330.5859   1804.6204      0.0000      0.0000   8560.9033 111458.2344 166654.1719 166654.1719 166654.1719 114424.8594      0.0000      0.0000      0.0000      0.0000      0.0000      0.0000      0.0000      0.0000      0.0000  14155.6387  19057.1367  19057.1367  19057.1367  19057.1367  19057.1367  19057.1367  19057.1367  13311.4082    459.2771      0.0000      0.0000      0.0000      0.0000      0.0000      0.0000      0.0000      0.0000      0.0000      0.0000
      0.0000      0.0000      0.0000      0.0000      0.0000      0.0000      0.0000      0.0000      0.0000      0.0000      0.0000      0.0000      0.0000      0.0000      0.0000      0.0000      0.0000      0.0000      0.0000      0.0000      0.0000      0.0000      0.0000      0.0000      0.0000  65721.7734  88276.3672  88276.3672  88276.3672  88276.3672  88276.3672  88276.3672  88276.3672  88095.7266  64894.4766  24452.8418  24452.8418  18212.4883      0.0000      0.0000  29710.3457  79061.8906 109529.2266 166654.1719 166654.1719 166654.1719  56479.1211      0.0000      0.0000      0.0000      0.0000      0.0000      0.0000      0.0000      0.0000   4394.5737  18994.2480  19057.1367  19057.1367  19057.1367  19057.1367  19057.1367  19057.1367  14904.5869   1406.4164      0.0000      0.0000      0.0000      0.0000      0.0000      0.0000      0.0000      0.0000      0.0000      0.0000      0.0000
      0.0000      0.0000      0.0000      0.0000      0.0000      0.0000      0.0000      0.0000      0.0000      0.0000      0.0000      0.0000      0.0000      0.0000      0.0000      0.0000      0.0000      0.0000      0.0000      0.0000      0.0000      0.0000      0.0000      0.0000   1959.7374  86325.5000  88276.3672  88276.3672  88276.3672  88276.3672  88276.3672  88065.4688  86509.9922  85975.8438  64523.3906  56414.9609  52262.7852  50564.6914  64482.7227  78736.2344  84169.3594  85694.6797  86625.7266 161262.3125 166654.1719 160571.4062  39663.7070      0.0000      0.0000      0.0000      0.0000      0.0000      0.0000      0.0000   4880.5337  16299.5654  19057.1367  19057.1367  19057.1367  19057.1367  19057.1367  19057.1367  19057.1367  10336.5918      0.0000      0.0000      0.0000      0.0000      0.0000      0.0000      0.0000      0.0000      0.0000      0.0000      0.0000      0.0000
      0.0000      0.0000      0.0000      0.0000      0.0000      0.0000      0.0000      0.0000      0.0000      0.0000      0.0000      0.0000      0.0000      0.0000      0.0000      0.0000      0.0000      0.0000      0.0000      0.0000      0.0000      0.0000      0.0000      0.0000   1641.9413  79254.5547  88276.3672  88276.3672  88276.3672  88276.3672  87351.6406  86143.6719  85694.6797  85694.6797  85694.6797  85694.6797  85694.6797  85694.6797  85694.6797  85694.6797  85694.6797  85694.6797 119535.8203 166654.1719 166654.1719 152738.5312   9899.2646      0.0000      0.0000      0.0000      0.0000      0.0000      0.0000      0.0000  12728.2607  19057.1367  19057.1367  19057.1367  19057.1367  19057.1367  19057.1367  19057.1367  17616.4160   2338.3108      0.0000      0.0000      0.0000      0.0000      0.0000      0.0000      0.0000      0.0000      0.0000      0.0000      0.0000      0.0000
      0.0000      0.0000      0.0000      0.0000      0.0000      0.0000      0.0000      0.0000      0.0000      0.0000      0.0000      0.0000      0.0000      0.0000      0.0000      0.0000      0.0000      0.0000      0.0000      0.0000      0.0000      0.0000      0.0000      0.0000      0.0000   6700.1807  47086.6172  88276.3672  87464.2812  72094.7891  85766.7266  85694.6797  85694.6797  85694.6797  85694.6797  85694.6797  85694.6797  85694.6797  85694.6797  85694.6797  85694.6797  85694.6797 149652.7344 166654.1719 166654.1719 132390.1562      0.0000      0.0000      0.0000      0.0000      0.0000      0.0000      0.0000   4653.7554  18559.7383  19057.1367  19057.1367  19057.1367  19057.1367  19057.1367  19057.1367  19057.1367  13174.2031      0.0000      0.0000      0.0000      0.0000      0.0000      0.0000      0.0000      0.0000      0.0000      0.0000      0.0000      0.0000      0.0000
      0.0000      0.0000      0.0000      0.0000      0.0000      0.0000      0.0000      0.0000      0.0000      0.0000      0.0000      0.0000      0.0000      0.0000      0.0000      0.0000      0.0000      0.0000      0.0000      0.0000      0.0000      0.0000      0.0000      0.0000      0.0000      0.0000    317.7952  27321.5605  13276.7734    231.3757  25776.9629  85557.6016  85694.6797  85694.6797  85694.6797  85694.6797  85694.6797  85694.6797  85694.6797  85694.6797  85694.6797  85694.6797 104897.1172 119753.6094 120678.6172 104854.9531      0.0000      0.0000      0.0000      0.0000      0.0000      0.0000   5976.3198  16349.1162  19057.1367  19057.1367  19057.1367  19057.1367  19057.1367  19057.1367  19057.1367  14087.0342     60.9828      0.0000      0.0000      0.0000      0.0000      0.0000      0.0000      0.0000      0.0000      0.0000      0.0000      0.0000      0.0000      0.0000
      0.0000      0.0000      0.0000      0.0000      0.0000      0.0000      0.0000      0.0000      0.0000      0.0000      0.0000      0.0000      0.0000      0.0000      0.0000      0.0000      0.0000      0.0000      0.0000      0.0000      0.0000      0.0000      0.0000      0.0000      0.0000      0.0000      0.0000      0.0000      0.0000      0.0000      0.0000  12665.6797  63071.2578  85694.6797  85694.6797  85694.6797  85694.6797  85694.6797  85694.6797  85694.6797  85694.6797  85694.6797  94410.0625 106191.8516 106191.8516  98662.3672  36126.4531      0.0000      0.0000      0.0000      0.0000      0.0000  13084.6270  19057.1367  19057.1367  19057.1367  19057.1367  19057.1367  19057.1367  19057.1367  16861.7617   2084.8508      0.0000      0.0000      0.0000      0.0000      0.0000      0.0000      0.0000      0.0000      0.0000      0.0000      0.0000      0.0000      0.0000      0.0000
      0.0000      0.0000      0.0000      0.0000      0.0000      0.0000      0.0000      0.0000      0.0000      0.0000      0.0000      0.0000      0.0000      0.0000      0.0000      0.0000      0.0000      0.0000      0.0000      0.0000      0.0000      0.0000      0.0000      0.0000      0.0000      0.0000      0.0000      0.0000      0.0000      0.0000      0.0000      0.0000  30387.3379  85206.2422  85694.6797  85694.6797  85694.6797  85694.6797  85694.6797  85694.6797  85694.6797  85694.6797  96771.3516 106191.8516 106191.8516  59159.4688      0.0000      0.0000      0.0000      0.0000      0.0000      0.0000  14519.6318  19057.1367  19057.1367  19057.1367  19057.1367  19057.1367  19057.1367  19057.1367  13178.0088      0.0000      0.0000      0.0000      0.0000      0.0000      0.0000      0.0000      0.0000      0.0000      0.0000      0.0000      0.0000      0.0000      0.0000      0.0000
      0.0000      0.0000      0.0000      0.0000      0.0000      0.0000      0.0000      0.0000      0.0000      0.0000      0.0000      0.0000      0.0000      0.0000      0.0000      0.0000      0.0000      0.0000      0.0000      0.0000      0.0000      0.0000      0.0000      0.0000      0.0000      0.0000      0.0000      0.0000      0.0000      0.0000      0.0000      0.0000      0.0000  41424.8242  85694.6797  85694.6797  85694.6797  85694.6797  85694.6797  85694.6797  85694.6797  49034.5039  15656.9473  72380.3672 104821.9297  18923.3848      0.0000      0.0000      0.0000      0.0000      0.0000      0.0000   8099.2837  19057.1367  19057.1367  19057.1367  19057.1367  19057.1367  19057.1367  19057.1367  19007.5840   7559.9663      0.0000      0.0000      0.0000      0.0000      0.0000      0.0000      0.0000      0.0000      0.0000      0.0000      0.0000      0.0000      0.0000      0.0000
      0.0000      0.0000      0.0000      0.0000      0.0000      0.0000      0.0000      0.0000      0.0000      0.0000      0.0000      0.0000      0.0000      0.0000      0.0000      0.0000      0.0000      0.0000      0.0000      0.0000      0.0000      0.0000      0.0000      0.0000   1063.7808  10397.8086  12006.4600    895.1331      0.0000      0.0000      0.0000      0.0000      0.0000   2579.4097  68366.7734  81489.6719  85694.6797  84482.1016  79844.4688  69864.7422  36103.1641   1551.0734      0.0000  20091.4941  81374.7578      0.0000      0.0000      0.0000      0.0000      0.0000      0.0000      0.0000   7939.2046  19057.1367  19057.1367  19057.1367  19057.1367  19057.1367  19057.1367  19057.1367  18805.5859   6349.8379      0.0000      0.0000      0.0000      0.0000      0.0000      0.0000      0.0000      0.0000      0.0000      0.0000      0.0000      0.0000      0.0000      0.0000
      0.0000      0.0000      0.0000      0.0000      0.0000      0.0000      0.0000      0.0000      0.0000      0.0000      0.0000      0.0000      0.0000      0.0000      0.0000      0.0000      0.0000      0.0000      0.0000      0.0000      0.0000      0.0000      0.0000      0.0000  13772.9365  21621.5625  21621.5625  11152.4014    140.5402      0.0000      0.0000      0.0000      0.0000      0.0000  48845.3906  64057.1445  68311.8281  63014.7344  62057.4180  46176.9258  13913.2725   2445.0615      0.0000   9875.8457  21567.5645      0.0000      0.0000      0.0000      0.0000      0.0000      0.0000     70.5114  13677.3066  19057.1367  19057.1367  19057.1367  19057.1367  19057.1367  19057.1367  19057.1367  10713.9238      0.0000      0.0000      0.0000      0.0000      0.0000      0.0000      0.0000      0.0000      0.0000      0.0000      0.0000      0.0000      0.0000      0.0000      0.0000
      0.0000      0.0000      0.0000      0.0000      0.0000      0.0000      0.0000      0.0000      0.0000      0.0000      0.0000      0.0000      0.0000      0.0000      0.0000      0.0000      0.0000      0.0000      0.0000      0.0000      0.0000      0.0000      0.0000   2179.4546  14681.0488  21621.5625  21621.5625  21621.5625  13457.2578      0.0000      0.0000      0.0000      0.0000      0.0000  55063.5547  62057.4180  62057.4180  62057.4180  62057.4180  62057.4180  62057.4180  50645.0625  16544.5078  24121.7363  14924.8125  11852.9766   5628.6108      0.0000      0.0000      0.0000      0.0000   8417.5371  19057.1367  19057.1367  19057.1367  19057.1367  19057.1367  19057.1367  19057.1367  18119.5215   2458.3711      0.0000      0.0000      0.0000      0.0000      0.0000      0.0000      0.0000      0.0000      0.0000      0.0000      0.0000      0.0000      0.0000      0.0000      0.0000
      0.0000      0.0000      0.0000      0.0000      0.0000      0.0000      0.0000      0.0000      0.0000      0.0000      0.0000      0.0000      0.0000      0.0000      0.0000      0.0000      0.0000      0.0000      0.0000      0.0000      0.0000      0.0000      0.0000   9029.1660  21621.5625  21621.5625  21621.5625  21621.5625  21578.3223   3055.1284      0.0000      0.0000      0.0000      0.0000  51731.0586  62057.4180  62057.4180  62057.4180  62057.4180  62057.4180  62057.4180  62057.4180  62020.1758  62057.4180  62057.4180  62057.4180  60872.1680  44569.6289  40417.9922  33455.1562  11935.7422  18799.8750  19057.1367  19057.1367  19057.1367  19057.1367  19057.1367  19057.1367  19057.1367   5313.1313      0.0000      0.0000      0.0000      0.0000      0.0000      0.0000      0.0000      0.0000      0.0000      0.0000      0.0000      0.0000      0.0000      0.0000      0.0000      0.0000
      0.0000      0.0000      0.0000      0.0000      0.0000      0.0000      0.0000      0.0000      0.0000      0.0000      0.0000      0.0000      0.0000      0.0000      0.0000      0.0000      0.0000      0.0000      0.0000      0.0000      0.0000      0.0000      0.0000   6635.6567  21621.5625  21621.5625  21621.5625  21621.5625  21621.5625  12002.1260      0.0000      0.0000      0.0000      0.0000  25629.7148  62057.4180  62057.4180  62057.4180  62057.4180  62057.4180  62057.4180  62057.4180  62057.4180  62057.4180  62057.4180  62057.4180  62057.4180  62057.4180  62057.4180  61623.1211  26552.0859  19057.1367  19057.1367  19057.1367  19057.1367  19057.1367  19057.1367  19057.1367  18188.1289    459.2771      0.0000      0.0000      0.0000      0.0000      0.0000      0.0000      0.0000      0.0000      0.0000      0.0000      0.0000      0.0000      0.0000      0.0000      0.0000      0.0000
      0.0000      0.0000      0.0000      0.0000      0.0000      0.0000      0.0000      0.0000      0.0000      0.0000      0.0000      0.0000      0.0000      0.0000      0.0000      0.0000      0.0000      0.0000      0.0000      0.0000      0.0000      0.0000      0.0000   8393.4912  21621.5625  21621.5625  21621.5625  21621.5625  21621.5625  17132.9297    298.3777      0.0000      0.0000      0.0000   2277.5068  40020.8398  62057.4180  62057.4180  62057.4180  62057.4180  62057.4180  62057.4180  62057.4180  62057.4180  62057.4180  62057.4180  60006.3242  61154.4375  38364.2578  21009.3359  19057.1367  19057.1367  19057.1367  19057.1367  19057.1367  19057.1367  19057.1367  19057.1367  19057.1367   3620.8557      0.0000      0.0000      0.0000      0.0000      0.0000      0.0000      0.0000      0.0000      0.0000      0.0000      0.0000      0.0000      0.0000      0.0000      0.0000      0.0000
      0.0000      0.0000      0.0000      0.0000      0.0000      0.0000      0.0000      0.0000      0.0000      0.0000      0.0000      0.0000      0.0000      0.0000      0.0000      0.0000      0.0000      0.0000      0.0000      0.0000      0.0000      0.0000      0.0000  15814.0117  21621.5625  21621.5625  21621.5625  21621.5625  21621.5625  21621.5625  20445.3516   9107.0039      0.0000      0.0000      0.0000      0.0000  43291.2656  62057.4180  62057.4180  62057.4180  62057.4180  62057.4180  62057.4180  62057.4180  62057.4180  55400.9688  22170.3613  24827.7793  19057.1367  19057.1367  19057.1367  19057.1367  19057.1367  19057.1367  19057.1367  19057.1367  19057.1367  19057.1367  16775.9980     36.2086      0.0000      0.0000      0.0000      0.0000      0.0000      0.0000      0.0000      0.0000      0.0000      0.0000      0.0000      0.0000      0.0000      0.0000      0.0000      0.0000
      0.0000      0.0000      0.0000      0.0000      0.0000      0.0000      0.0000      0.0000      0.0000      0.0000      0.0000      0.0000      0.0000      0.0000      0.0000      0.0000      0.0000      0.0000      0.0000      0.0000      0.0000      0.0000   5673.4995  21543.7246  21621.5625  21621.5625  21621.5625  21621.5625  21621.5625  21621.5625  21621.5625  14423.7520      0.0000      0.0000      0.0000      0.0000  34857.6562  62057.4180  62057.4180  62057.4180  62057.4180  62057.4180  62057.4180  62057.4180  62020.1758  32034.6250  19057.1367  19057.1367  19057.1367  19057.1367  19057.1367  19057.1367  19057.1367  19057.1367  19057.1367  19057.1367  19057.1367  14458.6484   5562.7764      0.0000      0.0000      0.0000      0.0000      0.0000      0.0000      0.0000      0.0000      0.0000      0.0000      0.0000      0.0000      0.0000      0.0000      0.0000      0.0000      0.0000
      0.0000      0.0000      0.0000      0.0000      0.0000      0.0000      0.0000      0.0000      0.0000      0.0000      0.0000      0.0000      0.0000      0.0000      0.0000      0.0000      0.0000      0.0000      0.0000      0.0000      0.0000      0.0000  10110.2441  21621.5625  21621.5625  21621.5625  21621.5625  21621.5625  21621.5625  21621.5625  21621.5625  21197.7871   6276.7441      0.0000      0.0000      0.0000  12057.7607  61697.4844  62057.4180  62057.4180  62057.4180  62057.4180  62057.4180  59782.7148  27592.7012  19045.6992  19057.1367  19057.1367  19057.1367  19057.1367  19057.1367  19057.1367  19057.1367  19057.1367  19057.1367  19057.1367  16553.0371   2995.7822      0.0000      0.0000      0.0000      0.0000      0.0000      0.0000      0.0000      0.0000      0.0000      0.0000      0.0000      0.0000      0.0000      0.0000      0.0000      0.0000      0.0000      0.0000
      0.0000      0.0000      0.0000      0.0000      0.0000      0.0000      0.0000      0.0000      0.0000      0.0000      0.0000      0.0000      0.0000      0.0000      0.0000      0.0000      0.0000      0.0000      0.0000      0.0000      0.0000      0.0000   5070.2568  21621.5625  21621.5625  21621.5625  21621.5625  21621.5625  21621.5625  21621.5625  21621.5625  21621.5625  11470.2471      0.0000      0.0000      0.0000   2736.7324  59922.6445  62057.4180  62057.4180  62057.4180  62057.4180  59670.9062  28960.0977  19057.1367  19057.1367  19057.1367  19057.1367  19057.1367  19057.1367  19057.1367  19057.1367  19057.1367  19057.1367  19057.1367  17210.4980   2877.6272      0.0000      0.0000      0.0000      0.0000      0.0000      0.0000      0.0000      0.0000      0.0000      0.0000      0.0000      0.0000      0.0000      0.0000      0.0000      0.0000      0.0000      0.0000      0.0000
      0.0000      0.0000      0.0000      0.0000      0.0000      0.0000      0.0000      0.0000      0.0000      0.0000      0.0000      0.0000      0.0000      0.0000      0.0000      0.0000      0.0000      0.0000      0.0000      0.0000      0.0000      0.0000    719.9980  20730.7637  21621.5625  21621.5625  21621.5625  21621.5625  21621.5625  21621.5625  21621.5625  21621.5625  11262.6748      0.0000      0.0000      0.0000   7211.0752  61834.0234  62057.4180  62057.4180  62057.4180  62057.4180  60741.6211  22742.2578  19057.1367  19057.1367  19057.1367  19057.1367  19057.1367  19057.1367  19057.1367  19057.1367  19057.1367  19057.1367  19057.1367  12478.6094      0.0000      0.0000      0.0000      0.0000      0.0000      0.0000      0.0000      0.0000      0.0000      0.0000      0.0000      0.0000      0.0000      0.0000      0.0000      0.0000      0.0000      0.0000      0.0000      0.0000
      0.0000      0.0000      0.0000      0.0000      0.0000      0.0000      0.0000      0.0000      0.0000      0.0000      0.0000      0.0000      0.0000      0.0000      0.0000      0.0000      0.0000      0.0000      0.0000      0.0000      0.0000      0.0000      0.0000  17195.6289  21621.5625  21621.5625  21621.5625  21621.5625  21621.5625  21621.5625  21621.5625  21621.5625   8856.1895      0.0000      0.0000      0.0000   1203.9141  37699.8945  62057.4180  62057.4180  62057.4180  62057.4180  62057.4180  45523.8242  19057.1367  19057.1367  19057.1367  19057.1367  19057.1367  19057.1367  19057.1367  19057.1367  19057.1367  15895.5557   5640.9116   4672.8081      0.0000      0.0000      0.0000      0.0000      0.0000      0.0000      0.0000      0.0000      0.0000      0.0000      0.0000      0.0000      0.0000      0.0000      0.0000      0.0000      0.0000      0.0000      0.0000      0.0000
      0.0000      0.0000      0.0000      0.0000      0.0000      0.0000      0.0000      0.0000      0.0000      0.0000      0.0000      0.0000      0.0000      0.0000      0.0000      0.0000      0.0000      0.0000      0.0000      0.0000      0.0000      0.0000      0.0000    719.9980   8155.6543  17366.4375  21615.0742  21621.5625  21621.5625  21621.5625  21621.5625  21621.5625   4192.4224      0.0000      0.0000      0.0000      0.0000  49180.5000  62057.4180  62057.4180  62057.4180  62057.4180  62057.4180  54605.4805  19057.1367  19057.1367  19057.1367  19057.1367  19057.1367  19057.1367  19057.1367  19057.1367  19057.1367   5890.5591      0.0000      0.0000      0.0000      0.0000      0.0000      0.0000      0.0000      0.0000      0.0000      0.0000      0.0000      0.0000      0.0000      0.0000      0.0000      0.0000      0.0000      0.0000      0.0000      0.0000      0.0000      0.0000
      0.0000      0.0000      0.0000      0.0000      0.0000      0.0000      0.0000      0.0000      0.0000      0.0000      0.0000      0.0000      0.0000      0.0000      0.0000      0.0000      0.0000      0.0000      0.0000      0.0000      0.0000      0.0000      0.0000      0.0000      0.0000      0.0000   2510.2646   7809.7100  17167.5254  21621.5625  21621.5625  21135.0762    105.9456      0.0000      0.0000      0.0000  18567.5781  62057.4180  62057.4180  62057.4180  62057.4180  62057.4180  62057.4180  43034.0781  19057.1367  19057.1367  19057.1367  18811.3008  16579.7051  16162.3564  10976.9111   4356.4614   3155.8608    703.2082      0.0000      0.0000      0.0000      0.0000      0.0000      0.0000      0.0000      0.0000      0.0000      0.0000      0.0000      0.0000      0.0000      0.0000      0.0000      0.0000      0.0000      0.0000      0.0000      0.0000      0.0000      0.0000
      0.0000      0.0000      0.0000      0.0000      0.0000      0.0000      0.0000      0.0000      0.0000      0.0000      0.0000      0.0000      0.0000      0.0000      0.0000      0.0000      0.0000      0.0000      0.0000      0.0000      0.0000      0.0000      0.0000      0.0000      0.0000      0.0000      0.0000      0.0000    177.2969   8391.3301  17444.2754  21621.5625   7044.4131   3159.4451   1488.2769      0.0000  40815.1758  62057.4180  62057.4180  62057.4180  62057.4180  61980.0156  54657.0898  27317.4961  19057.1367  19057.1367  19057.1367   6656.6587      0.0000      0.0000      0.0000      0.0000      0.0000      0.0000      0.0000      0.0000      0.0000      0.0000      0.0000      0.0000      0.0000      0.0000      0.0000      0.0000      0.0000      0.0000      0.0000      0.0000      0.0000      0.0000      0.0000      0.0000      0.0000      0.0000      0.0000      0.0000
      0.0000      0.0000      0.0000      0.0000      0.0000      0.0000      0.0000      0.0000      0.0000      0.0000      0.0000      0.0000      0.0000      0.0000      0.0000      0.0000      0.0000      0.0000      0.0000      0.0000      0.0000      0.0000      0.0000      0.0000      0.0000      0.0000      0.0000      0.0000      0.0000      0.0000   3513.5791  19644.1680  13830.9297  10603.4424   3821.5415   1782.5227  31989.1895  61830.8477  75360.7578  77484.8281  59147.7070  22518.6621  19057.1367  19057.1367  19057.1367  19057.1367  17850.8184   1111.0311      0.0000      0.0000      0.0000      0.0000      0.0000      0.0000      0.0000      0.0000      0.0000      0.0000      0.0000      0.0000      0.0000      0.0000      0.0000      0.0000      0.0000      0.0000      0.0000      0.0000      0.0000      0.0000      0.0000      0.0000      0.0000      0.0000      0.0000      0.0000
      0.0000      0.0000      0.0000      0.0000      0.0000      0.0000      0.0000      0.0000      0.0000      0.0000      0.0000      0.0000      0.0000      0.0000      0.0000      0.0000      0.0000      0.0000      0.0000      0.0000      0.0000      0.0000      0.0000   1144.9143      0.0000      0.0000      0.0000      0.0000      0.0000   1269.2200   5702.7656  10903.9492  10903.9492  10903.9492   6910.9224    219.1628   2200.1506  46202.7422  83977.5859  83977.5859  80342.0156  23731.4141  19057.1367  19057.1367  19057.1367  18706.4863    634.6028      0.0000      0.0000      0.0000      0.0000      0.0000      0.0000      0.0000      0.0000      0.0000      0.0000      0.0000      0.0000      0.0000      0.0000      0.0000      0.0000      0.0000      0.0000      0.0000      0.0000      0.0000      0.0000      0.0000      0.0000      0.0000      0.0000      0.0000      0.0000      0.0000
      0.0000      0.0000      0.0000      0.0000      0.0000      0.0000      0.0000      0.0000      0.0000      0.0000      0.0000      0.0000      0.0000      0.0000      0.0000      0.0000      0.0000      0.0000      0.0000      0.0000      0.0000      0.0000      0.0000   3670.2693   3114.1672      0.0000      0.0000      0.0000      0.0000   9777.5703  10903.9492  10903.9492  10903.9492  10903.9492  10861.1504  29985.6035  25109.2852  80190.1719  83977.5859  66955.3281  16050.9258  18087.1270  19057.1367  19057.1367  19057.1367  13789.7451      0.0000      0.0000      0.0000      0.0000      0.0000      0.0000      0.0000      0.0000      0.0000      0.0000      0.0000      0.0000      0.0000      0.0000      0.0000      0.0000      0.0000      0.0000      0.0000      0.0000      0.0000      0.0000      0.0000      0.0000      0.0000      0.0000      0.0000      0.0000      0.0000      0.0000
      0.0000      0.0000      0.0000      0.0000      0.0000      0.0000      0.0000      0.0000      0.0000      0.0000      0.0000      0.0000      0.0000      0.0000      0.0000      0.0000      0.0000      0.0000      0.0000      0.0000      0.0000      0.0000      0.0000   1946.3549  10896.3125   9440.6426   7785.4194   2806.6760   4857.7090  10788.3682  10903.9492  10903.9492  24517.5586  68361.7031  70612.3750  83977.5859  83977.5859  83977.5859  83297.3672   7507.5947      0.0000   7878.2197  19057.1367  19057.1367  19057.1367   5528.4746      0.0000      0.0000      0.0000      0.0000      0.0000      0.0000      0.0000      0.0000      0.0000      0.0000      0.0000      0.0000      0.0000      0.0000      0.0000      0.0000      0.0000      0.0000      0.0000      0.0000      0.0000      0.0000      0.0000      0.0000      0.0000      0.0000      0.0000      0.0000      0.0000      0.0000
      0.0000      0.0000      0.0000      0.0000      0.0000      0.0000      0.0000      0.0000      0.0000      0.0000      0.0000      0.0000      0.0000      0.0000      0.0000      0.0000      0.0000      0.0000      0.0000      0.0000      0.0000      0.0000      0.0000   2927.7107  10903.9492  10903.9492  10903.9492  10701.1357  10792.7305  10903.9492  10903.9492   7146.4492  33576.9766  83977.5859  83977.5859  83977.5859  83977.5859  83977.5859  83977.5859  31970.2539      0.0000    343.0285   5425.5664  18858.9414  19057.1367   5534.1919      0.0000      0.0000      0.0000      0.0000      0.0000      0.0000      0.0000      0.0000      0.0000      0.0000      0.0000      0.0000      0.0000      0.0000      0.0000      0.0000      0.0000      0.0000      0.0000      0.0000      0.0000      0.0000      0.0000      0.0000      0.0000      0.0000      0.0000      0.0000      0.0000      0.0000
      0.0000      0.0000      0.0000      0.0000      0.0000      0.0000      0.0000      0.0000      0.0000      0.0000      0.0000      0.0000      0.0000      0.0000      0.0000      0.0000      0.0000      0.0000      0.0000      0.0000      0.0000      0.0000      0.0000    742.5589  10831.9844  10114.5020   8680.6338   4712.6870   5890.3115   6842.2280   3266.8225    475.4121    201.5461  58406.3867  83977.5859  83977.5859  83977.5859  83977.5859  83977.5859  13931.8779      0.0000      0.0000      0.0000  14182.3223  18879.9062   2063.8894      0.0000      0.0000      0.0000      0.0000      0.0000      0.0000      0.0000      0.0000      0.0000      0.0000      0.0000      0.0000      0.0000      0.0000      0.0000      0.0000      0.0000      0.0000      0.0000      0.0000      0.0000      0.0000      0.0000      0.0000      0.0000      0.0000      0.0000      0.0000      0.0000      0.0000
      0.0000      0.0000      0.0000      0.0000      0.0000      0.0000      0.0000      0.0000      0.0000      0.0000      0.0000      0.0000      0.0000      0.0000      0.0000      0.0000      0.0000      0.0000      0.0000      0.0000      0.0000      0.0000      0.0000      0.0000   2696.5464    254.0620      0.0000      0.0000      0.0000      0.0000      0.0000      0.0000      0.0000   8473.3350  46061.6875  76570.7500  83977.5859  83977.5859  72791.7422    201.5461      0.0000      0.0000      0.0000      0.0000   3849.5420      0.0000      0.0000      0.0000      0.0000      0.0000      0.0000      0.0000      0.0000      0.0000      0.0000      0.0000      0.0000      0.0000      0.0000      0.0000      0.0000      0.0000      0.0000      0.0000      0.0000      0.0000      0.0000      0.0000      0.0000      0.0000      0.0000      0.0000      0.0000      0.0000      0.0000      0.0000
      0.0000      0.0000      0.0000      0.0000      0.0000      0.0000      0.0000      0.0000      0.0000      0.0000      0.0000      0.0000      0.0000      0.0000      0.0000      0.0000      0.0000      0.0000      0.0000      0.0000      0.0000      0.0000      0.0000      0.0000      0.0000      0.0000      0.0000      0.0000      0.0000      0.0000      0.0000      0.0000      0.0000      0.0000      0.0000  35975.9766  83977.5859  71464.8906   6827.3765      0.0000      0.0000      0.0000      0.0000      0.0000      0.0000      0.0000      0.0000      0.0000      0.0000      0.0000      0.0000      0.0000      0.0000      0.0000      0.0000      0.0000      0.0000      0.0000      0.0000      0.0000      0.0000      0.0000      0.0000      0.0000      0.0000      0.0000      0.0000      0.0000      0.0000      0.0000      0.0000      0.0000      0.0000      0.0000      0.0000      0.0000
      0.0000      0.0000      0.0000      0.0000      0.0000      0.0000      0.0000      0.0000      0.0000      0.0000      0.0000      0.0000      0.0000      0.0000      0.0000      0.0000      0.0000      0.0000      0.0000      0.0000      0.0000      0.0000      0.0000      0.0000      0.0000      0.0000      0.0000      0.0000      0.0000      0.0000      0.0000      0.0000      0.0000      0.0000      0.0000    302.3192  19944.6738   5676.8813      0.0000      0.0000      0.0000      0.0000      0.0000      0.0000      0.0000      0.0000      0.0000      0.0000      0.0000      0.0000      0.0000      0.0000      0.0000      0.0000      0.0000      0.0000      0.0000      0.0000      0.0000      0.0000      0.0000      0.0000      0.0000      0.0000      0.0000      0.0000      0.0000      0.0000      0.0000      0.0000      0.0000      0.0000      0.0000      0.0000      0.0000      0.0000
      0.0000      0.0000      0.0000      0.0000      0.0000      0.0000      0.0000      0.0000      0.0000      0.0000      0.0000      0.0000      0.0000      0.0000      0.0000      0.0000      0.0000      0.0000      0.0000      0.0000      0.0000      0.0000      0.0000      0.0000      0.0000      0.0000      0.0000      0.0000      0.0000      0.0000      0.0000      0.0000      0.0000      0.0000      0.0000      0.0000      0.0000      0.0000      0.0000      0.0000      0.0000      0.0000      0.0000      0.0000      0.0000      0.0000      0.0000      0.0000      0.0000      0.0000      0.0000      0.0000      0.0000      0.0000      0.0000      0.0000      0.0000      0.0000      0.0000      0.0000      0.0000      0.0000      0.0000      0.0000      0.0000      0.0000      0.0000      0.0000      0.0000      0.0000      0.0000      0.0000      0.0000      0.0000      0.0000      0.0000
      0.0000      0.0000      0.0000      0.0000      0.0000      0.0000      0.0000      0.0000      0.0000      0.0000      0.0000      0.0000      0.0000      0.0000      0.0000      0.0000      0.0000      0.0000      0.0000      0.0000      0.0000      0.0000      0.0000      0.0000      0.0000      0.0000      0.0000      0.0000      0.0000      0.0000      0.0000      0.0000      0.0000      0.0000      0.0000      0.0000      0.0000      0.0000      0.0000      0.0000      0.0000      0.0000      0.0000      0.0000      0.0000      0.0000      0.0000      0.0000      0.0000      0.0000      0.0000      0.0000      0.0000      0.0000      0.0000      0.0000      0.0000      0.0000      0.0000      0.0000      0.0000      0.0000      0.0000      0.0000      0.0000      0.0000      0.0000      0.0000      0.0000      0.0000      0.0000      0.0000      0.0000      0.0000      0.0000      0.0000
      0.0000      0.0000      0.0000      0.0000      0.0000      0.0000      0.0000      0.0000      0.0000      0.0000      0.0000      0.0000      0.0000      0.0000      0.0000      0.0000      0.0000      0.0000      0.0000      0.0000      0.0000      0.0000      0.0000      0.0000      0.0000      0.0000      0.0000      0.0000      0.0000      0.0000      0.0000      0.0000      0.0000      0.0000      0.0000      0.0000      0.0000      0.0000      0.0000      0.0000      0.0000      0.0000      0.0000      0.0000      0.0000      0.0000      0.0000      0.0000      0.0000      0.0000      0.0000      0.0000      0.0000      0.0000      0.0000      0.0000      0.0000      0.0000      0.0000      0.0000      0.0000      0.0000      0.0000      0.0000      0.0000      0.0000      0.0000      0.0000      0.0000      0.0000      0.0000      0.0000      0.0000      0.0000      0.0000      0.0000
      0.0000      0.0000      0.0000      0.0000      0.0000      0.0000      0.0000      0.0000      0.0000      0.0000      0.0000      0.0000      0.0000      0.0000      0.0000      0.0000      0.0000      0.0000      0.0000      0.0000      0.0000      0.0000      0.0000      0.0000      0.0000      0.0000      0.0000      0.0000      0.0000      0.0000      0.0000      0.0000      0.0000      0.0000      0.0000      0.0000      0.0000      0.0000      0.0000      0.0000      0.0000      0.0000      0.0000      0.0000      0.0000      0.0000      0.0000      0.0000      0.0000      0.0000      0.0000      0.0000      0.0000      0.0000      0.0000      0.0000      0.0000      0.0000      0.0000      0.0000      0.0000      0.0000      0.0000      0.0000      0.0000      0.0000      0.0000      0.0000      0.0000      0.0000      0.0000      0.0000      0.0000      0.0000      0.0000      0.0000
      0.0000      0.0000      0.0000      0.0000      0.0000      0.0000      0.0000      0.0000      0.0000      0.0000      0.0000      0.0000      0.0000      0.0000      0.0000      0.0000      0.0000      0.0000      0.0000      0.0000      0.0000      0.0000      0.0000      0.0000      0.0000      0.0000      0.0000      0.0000      0.0000      0.0000      0.0000      0.0000      0.0000      0.0000      0.0000      0.0000      0.0000      0.0000      0.0000      0.0000      0.0000      0.0000      0.0000      0.0000      0.0000      0.0000      0.0000      0.0000      0.0000      0.0000      0.0000      0.0000      0.0000      0.0000      0.0000      0.0000      0.0000      0.0000      0.0000      0.0000      0.0000      0.0000      0.0000      0.0000      0.0000      0.0000      0.0000      0.0000      0.0000      0.0000      0.0000      0.0000      0.0000      0.0000      0.0000      0.0000
      0.0000      0.0000      0.0000      0.0000      0.0000      0.0000      0.0000      0.0000      0.0000      0.0000      0.0000      0.0000      0.0000      0.0000      0.0000      0.0000      0.0000      0.0000      0.0000      0.0000      0.0000      0.0000      0.0000      0.0000      0.0000      0.0000      0.0000      0.0000      0.0000      0.0000      0.0000      0.0000      0.0000      0.0000      0.0000      0.0000      0.0000      0.0000      0.0000      0.0000      0.0000      0.0000      0.0000      0.0000      0.0000      0.0000      0.0000      0.0000      0.0000      0.0000      0.0000      0.0000      0.0000      0.0000      0.0000      0.0000      0.0000      0.0000      0.0000      0.0000      0.0000      0.0000      0.0000      0.0000      0.0000      0.0000      0.0000      0.0000      0.0000      0.0000      0.0000      0.0000      0.0000      0.0000      0.0000      0.0000
      0.0000      0.0000      0.0000      0.0000      0.0000      0.0000      0.0000      0.0000      0.0000      0.0000      0.0000      0.0000      0.0000      0.0000      0.0000      0.0000      0.0000      0.0000      0.0000      0.0000      0.0000      0.0000      0.0000      0.0000      0.0000      0.0000      0.0000      0.0000      0.0000      0.0000      0.0000      0.0000      0.0000      0.0000      0.0000      0.0000      0.0000      0.0000      0.0000      0.0000      0.0000      0.0000      0.0000      0.0000      0.0000      0.0000      0.0000      0.0000      0.0000      0.0000      0.0000      0.0000      0.0000      0.0000      0.0000      0.0000      0.0000      0.0000      0.0000      0.0000      0.0000      0.0000      0.0000      0.0000      0.0000      0.0000      0.0000      0.0000      0.0000      0.0000      0.0000      0.0000      0.0000      0.0000      0.0000      0.0000
[...]
      0.0000      0.0000      0.0000      0.0000      0.0000      0.0000      0.0000      0.0000      0.0000      0.0000      0.0000      0.0000      0.0000      0.0000      0.0000      0.0000      0.0000      0.0000      0.0000      0.0000      0.0000      0.0000      0.0000      0.0000      0.0000  11529.7520    103.4988      0.0000   4029.5491  36235.4922  19447.3730      0.0000      0.0000      0.0000      0.0000      0.0000      0.0000      0.0000      0.0000      0.0000      0.0000      0.0000      0.0000      0.0000      0.0000      0.0000      0.0000      0.0000      0.0000      0.0000      0.0000      0.0000      0.0000      0.0000      0.0000      0.0000      0.0000      0.0000      0.0000      0.0000      0.0000      0.0000      0.0000      0.0000      0.0000      0.0000      0.0000      0.0000      0.0000      0.0000      0.0000      0.0000      0.0000      0.0000      0.0000      0.0000
      0.0000      0.0000      0.0000      0.0000      0.0000      0.0000      0.0000      0.0000      0.0000      0.0000      0.0000      0.0000      0.0000      0.0000      0.0000      0.0000      0.0000      0.0000      0.0000      0.0000      0.0000      0.0000      0.0000      0.0000      0.0000      0.0000      0.0000      0.0000      0.0000   6128.7485  15877.2305      0.0000      0.0000      0.0000      0.0000      0.0000      0.0000      0.0000      0.0000      0.0000      0.0000      0.0000      0.0000      0.0000      0.0000      0.0000      0.0000      0.0000      0.0000      0.0000      0.0000      0.0000      0.0000      0.0000      0.0000      0.0000      0.0000      0.0000      0.0000      0.0000      0.0000      0.0000      0.0000      0.0000      0.0000      0.0000      0.0000      0.0000      0.0000      0.0000      0.0000      0.0000      0.0000      0.0000      0.0000      0.0000
      0.0000      0.0000      0.0000      0.0000      0.0000      0.0000      0.0000      0.0000      0.0000      0.0000      0.0000      0.0000      0.0000    239.9975      0.0000      0.0000      0.0000      0.0000      0.0000      0.0000      0.0000      0.0000   9007.3457   4061.7017      0.0000      0.0000      0.0000      0.0000      0.0000      0.0000   1408.2241      0.0000      0.0000      0.0000      0.0000      0.0000      0.0000      0.0000      0.0000      0.0000      0.0000      0.0000      0.0000      0.0000      0.0000      0.0000      0.0000      0.0000      0.0000      0.0000      0.0000      0.0000      0.0000      0.0000      0.0000      0.0000      0.0000      0.0000      0.0000      0.0000      0.0000      0.0000      0.0000      0.0000      0.0000      0.0000      0.0000      0.0000      0.0000      0.0000      0.0000      0.0000      0.0000      0.0000      0.0000      0.0000
      0.0000      0.0000      0.0000      0.0000      0.0000      0.0000      0.0000      0.0000      0.0000      0.0000      0.0000      0.0000   2500.5144   9181.5303   2049.7083      0.0000      0.0000      0.0000      0.0000      0.0000      0.0000      0.0000   8828.3369  14957.3232   2979.7412      0.0000      0.0000      0.0000      0.0000      0.0000      0.0000      0.0000      0.0000      0.0000      0.0000      0.0000      0.0000      0.0000      0.0000      0.0000      0.0000      0.0000      0.0000      0.0000      0.0000      0.0000      0.0000      0.0000      0.0000      0.0000      0.0000      0.0000      0.0000      0.0000      0.0000      0.0000      0.0000      0.0000      0.0000      0.0000      0.0000      0.0000      0.0000      0.0000      0.0000      0.0000      0.0000      0.0000      0.0000      0.0000      0.0000      0.0000      0.0000      0.0000      0.0000      0.0000
      0.0000      0.0000      0.0000      0.0000      0.0000      0.0000      0.0000      0.0000      0.0000      0.0000      0.0000     97.2963   9020.4453  10810.6992   7548.0293      0.0000      0.0000      0.0000      0.0000      0.0000      0.0000      0.0000     99.8000  11738.3770  11792.2393   1081.9587      0.0000      0.0000      0.0000      0.0000      0.0000      0.0000      0.0000      0.0000      0.0000      0.0000      0.0000      0.0000      0.0000      0.0000      0.0000      0.0000      0.0000      0.0000      0.0000      0.0000      0.0000      0.0000      0.0000      0.0000      0.0000      0.0000      0.0000      0.0000      0.0000      0.0000      0.0000      0.0000      0.0000      0.0000      0.0000      0.0000      0.0000      0.0000      0.0000      0.0000      0.0000      0.0000      0.0000      0.0000      0.0000      0.0000      0.0000      0.0000      0.0000      0.0000
      0.0000      0.0000      0.0000      0.0000      0.0000      0.0000      0.0000      0.0000      0.0000      0.0000      0.0000     48.6481   8099.3750  10810.6992  10453.9453   1838.8993      0.0000      0.0000      0.0000      0.0000      0.0000      0.0000      0.0000  12631.8232  15841.2617  10602.5605   4646.2446   3985.6624   2669.2524    525.9302      0.0000      0.0000      0.0000      0.0000      0.0000      0.0000      0.0000      0.0000      0.0000      0.0000      0.0000      0.0000      0.0000      0.0000      0.0000      0.0000      0.0000      0.0000      0.0000      0.0000      0.0000      0.0000      0.0000      0.0000      0.0000      0.0000      0.0000      0.0000      0.0000      0.0000      0.0000      0.0000      0.0000      0.0000      0.0000      0.0000      0.0000      0.0000      0.0000      0.0000      0.0000      0.0000      0.0000      0.0000      0.0000      0.0000
      0.0000      0.0000      0.0000      0.0000      0.0000      0.0000      0.0000      0.0000      0.0000      0.0000      0.0000      0.0000   5650.7534  10810.6992  10810.6992   9029.0928    418.3741      0.0000      0.0000      0.0000      0.0000      0.0000      0.0000   3203.1040  13279.7363  15394.5430  15427.8096  15237.7158  13526.8613  12257.9736   2081.5420      0.0000      0.0000      0.0000      0.0000      0.0000      0.0000      0.0000      0.0000      0.0000      0.0000      0.0000      0.0000      0.0000      0.0000      0.0000      0.0000      0.0000      0.0000      0.0000      0.0000      0.0000      0.0000      0.0000      0.0000      0.0000      0.0000      0.0000      0.0000      0.0000      0.0000      0.0000      0.0000      0.0000      0.0000      0.0000      0.0000      0.0000      0.0000      0.0000      0.0000      0.0000      0.0000      0.0000      0.0000      0.0000
      0.0000      0.0000      0.0000      0.0000      0.0000      0.0000      0.0000      0.0000      0.0000      0.0000      0.0000      0.0000   3815.0945  10810.6992  10810.6992  10810.6992   4740.4907      0.0000      0.0000      0.0000      0.0000      0.0000      0.0000      0.0000     85.5428   1392.4480    674.8376    199.6000      0.0000     42.7714      0.0000      0.0000      0.0000      0.0000      0.0000      0.0000      0.0000      0.0000      0.0000      0.0000      0.0000      0.0000      0.0000      0.0000      0.0000      0.0000      0.0000      0.0000      0.0000      0.0000      0.0000      0.0000      0.0000      0.0000      0.0000      0.0000      0.0000      0.0000      0.0000      0.0000      0.0000      0.0000      0.0000      0.0000      0.0000      0.0000      0.0000      0.0000      0.0000      0.0000      0.0000      0.0000      0.0000      0.0000      0.0000      0.0000
      0.0000      0.0000      0.0000      0.0000      0.0000      0.0000      0.0000      0.0000      0.0000      0.0000      0.0000      0.0000   4191.3062  10810.6992  10810.6992  10810.6992   8385.8594      0.0000      0.0000      0.0000      0.0000      0.0000      0.0000      0.0000      0.0000      0.0000      0.0000      0.0000      0.0000      0.0000      0.0000      0.0000      0.0000      0.0000      0.0000      0.0000      0.0000      0.0000      0.0000      0.0000      0.0000      0.0000      0.0000      0.0000      0.0000      0.0000      0.0000      0.0000      0.0000      0.0000      0.0000      0.0000      0.0000      0.0000      0.0000      0.0000      0.0000      0.0000      0.0000      0.0000      0.0000      0.0000      0.0000      0.0000      0.0000      0.0000      0.0000      0.0000      0.0000      0.0000      0.0000      0.0000      0.0000      0.0000      0.0000      0.0000
      0.0000      0.0000      0.0000      0.0000      0.0000      0.0000      0.0000      0.0000      0.0000      0.0000      0.0000      0.0000   5413.9980  10810.6992  10810.6992  10810.6992   8616.1240      0.0000      0.0000      0.0000      0.0000      0.0000      0.0000      0.0000      0.0000      0.0000      0.0000      0.0000      0.0000      0.0000      0.0000      0.0000      0.0000      0.0000      0.0000      0.0000      0.0000      0.0000      0.0000      0.0000      0.0000      0.0000      0.0000      0.0000      0.0000      0.0000      0.0000      0.0000      0.0000      0.0000      0.0000      0.0000      0.0000      0.0000      0.0000      0.0000      0.0000      0.0000      0.0000      0.0000      0.0000      0.0000      0.0000      0.0000      0.0000      0.0000      0.0000      0.0000      0.0000      0.0000      0.0000      0.0000      0.0000      0.0000      0.0000      0.0000
      0.0000      0.0000      0.0000      0.0000      0.0000      0.0000      0.0000      0.0000      0.0000      0.0000      0.0000      0.0000   2722.1340  10810.6992  10810.6992  10810.6992  10787.9990   1664.8468      0.0000      0.0000      0.0000      0.0000      0.0000      0.0000      0.0000      0.0000      0.0000      0.0000      0.0000      0.0000      0.0000      0.0000      0.0000      0.0000      0.0000      0.0000      0.0000      0.0000      0.0000      0.0000      0.0000      0.0000      0.0000      0.0000      0.0000      0.0000      0.0000      0.0000      0.0000      0.0000      0.0000      0.0000      0.0000      0.0000      0.0000      0.0000      0.0000      0.0000      0.0000      0.0000      0.0000      0.0000      0.0000      0.0000      0.0000      0.0000      0.0000      0.0000      0.0000      0.0000      0.0000      0.0000      0.0000      0.0000      0.0000      0.0000
      0.0000      0.0000      0.0000      0.0000      0.0000      0.0000      0.0000      0.0000      0.0000      0.0000      0.0000    603.2368   7826.9453  10810.6992  10810.6992  10810.6992  10810.6992   1142.6910      0.0000      0.0000      0.0000      0.0000      0.0000      0.0000      0.0000      0.0000      0.0000      0.0000      0.0000      0.0000      0.0000      0.0000      0.0000      0.0000      0.0000      0.0000      0.0000      0.0000      0.0000      0.0000      0.0000      0.0000      0.0000      0.0000      0.0000      0.0000      0.0000      0.0000      0.0000      0.0000      0.0000      0.0000      0.0000      0.0000      0.0000      0.0000      0.0000      0.0000      0.0000      0.0000      0.0000      0.0000      0.0000      0.0000      0.0000      0.0000      0.0000      0.0000      0.0000      0.0000      0.0000      0.0000      0.0000      0.0000      0.0000      0.0000
      0.0000      0.0000      0.0000      0.0000      0.0000      0.0000      0.0000      0.0000      0.0000      0.0000      0.0000   2471.3257  10752.3252  10810.6992  10810.6992  10810.6992  10706.9160    970.8009      0.0000      0.0000      0.0000      0.0000      0.0000      0.0000      0.0000      0.0000      0.0000      0.0000      0.0000      0.0000      0.0000      0.0000      0.0000      0.0000      0.0000      0.0000      0.0000      0.0000      0.0000      0.0000      0.0000      0.0000      0.0000      0.0000      0.0000      0.0000      0.0000      0.0000      0.0000      0.0000      0.0000      0.0000      0.0000      0.0000      0.0000      0.0000      0.0000      0.0000      0.0000      0.0000      0.0000      0.0000      0.0000      0.0000      0.0000      0.0000      0.0000      0.0000      0.0000      0.0000      0.0000      0.0000      0.0000      0.0000      0.0000      0.0000
      0.0000      0.0000      0.0000      0.0000      0.0000      0.0000      0.0000      0.0000      0.0000      0.0000      0.0000     29.1889   9309.0947  10810.6992  10810.6992  10810.6992  10810.6992   7599.9214    227.0246      0.0000      0.0000      0.0000      0.0000      0.0000      0.0000      0.0000      0.0000      0.0000      0.0000      0.0000      0.0000      0.0000      0.0000      0.0000      0.0000      0.0000      0.0000      0.0000      0.0000      0.0000      0.0000      0.0000      0.0000      0.0000      0.0000      0.0000      0.0000      0.0000      0.0000      0.0000      0.0000      0.0000      0.0000      0.0000      0.0000      0.0000      0.0000      0.0000      0.0000      0.0000      0.0000      0.0000      0.0000      0.0000      0.0000      0.0000      0.0000      0.0000      0.0000      0.0000      0.0000      0.0000      0.0000      0.0000      0.0000      0.0000
      0.0000      0.0000      0.0000      0.0000      0.0000      0.0000      0.0000      0.0000      0.0000      0.0000      0.0000      0.0000   6185.8818  10810.6992  10810.6992  10810.6992  10810.6992  10191.2441    278.9160      0.0000      0.0000      0.0000      0.0000      0.0000      0.0000      0.0000      0.0000      0.0000      0.0000      0.0000      0.0000      0.0000      0.0000      0.0000      0.0000      0.0000      0.0000      0.0000      0.0000      0.0000      0.0000      0.0000      0.0000      0.0000      0.0000      0.0000      0.0000      0.0000      0.0000      0.0000      0.0000      0.0000      0.0000      0.0000      0.0000      0.0000      0.0000      0.0000      0.0000      0.0000      0.0000      0.0000      0.0000      0.0000      0.0000      0.0000      0.0000      0.0000      0.0000      0.0000      0.0000      0.0000      0.0000      0.0000      0.0000      0.0000
      0.0000      0.0000      0.0000      0.0000      0.0000      0.0000      0.0000      0.0000      0.0000      0.0000      0.0000      0.0000   1788.0896  10538.2705  10810.6992  10810.6992  10810.6992  10807.4561   4086.4438     97.2963      0.0000      0.0000      0.0000      0.0000      0.0000      0.0000      0.0000      0.0000      0.0000      0.0000      0.0000      0.0000      0.0000      0.0000      0.0000      0.0000      0.0000      0.0000      0.0000      0.0000      0.0000      0.0000      0.0000      0.0000      0.0000      0.0000      0.0000      0.0000      0.0000      0.0000      0.0000      0.0000      0.0000      0.0000      0.0000      0.0000      0.0000      0.0000      0.0000      0.0000      0.0000      0.0000      0.0000      0.0000      0.0000      0.0000      0.0000      0.0000      0.0000      0.0000      0.0000      0.0000      0.0000      0.0000      0.0000      0.0000
      0.0000      0.0000      0.0000      0.0000      0.0000      0.0000      0.0000      0.0000      0.0000      0.0000      0.0000      0.0000      0.0000   8544.7754  10810.6992  10810.6992  10810.6992  10810.6992  10148.0020   2004.3035      0.0000      0.0000      0.0000      0.0000      0.0000      0.0000      0.0000      0.0000      0.0000      0.0000      0.0000      0.0000      0.0000      0.0000      0.0000      0.0000      0.0000      0.0000      0.0000      0.0000      0.0000      0.0000      0.0000      0.0000      0.0000      0.0000      0.0000      0.0000      0.0000      0.0000      0.0000      0.0000      0.0000      0.0000      0.0000      0.0000      0.0000      0.0000      0.0000      0.0000      0.0000      0.0000      0.0000      0.0000      0.0000      0.0000      0.0000      0.0000      0.0000      0.0000      0.0000      0.0000      0.0000      0.0000      0.0000      0.0000
      0.0000      0.0000      0.0000      0.0000      0.0000      0.0000      0.0000      0.0000      0.0000      0.0000      0.0000      0.0000   1938.3579  10514.4854  10804.2129  10192.3252   6498.3110   5395.6216    447.5628      0.0000      0.0000      0.0000      0.0000      0.0000      0.0000      0.0000      0.0000      0.0000      0.0000      0.0000      0.0000      0.0000      0.0000      0.0000      0.0000      0.0000      0.0000      0.0000      0.0000      0.0000      0.0000      0.0000      0.0000      0.0000      0.0000      0.0000      0.0000      0.0000      0.0000      0.0000      0.0000      0.0000      0.0000      0.0000      0.0000      0.0000      0.0000      0.0000      0.0000      0.0000      0.0000      0.0000      0.0000      0.0000      0.0000      0.0000      0.0000      0.0000      0.0000      0.0000      0.0000      0.0000      0.0000      0.0000      0.0000      0.0000
      0.0000      0.0000      0.0000      0.0000      0.0000      0.0000      0.0000      0.0000      0.0000      0.0000      0.0000      0.0000    351.3477   4385.9023   2932.9419     94.0531      0.0000      0.0000      0.0000      0.0000      0.0000      0.0000      0.0000      0.0000      0.0000      0.0000      0.0000      0.0000      0.0000      0.0000      0.0000      0.0000      0.0000      0.0000      0.0000      0.0000      0.0000      0.0000      0.0000      0.0000      0.0000      0.0000      0.0000      0.0000      0.0000      0.0000      0.0000      0.0000      0.0000      0.0000      0.0000      0.0000      0.0000      0.0000      0.0000      0.0000      0.0000      0.0000      0.0000      0.0000      0.0000      0.0000      0.0000      0.0000      0.0000      0.0000      0.0000      0.0000      0.0000      0.0000      0.0000      0.0000      0.0000      0.0000      0.0000      0.0000
      0.0000      0.0000      0.0000      0.0000      0.0000      0.0000      0.0000      0.0000      0.0000      0.0000      0.0000      0.0000      0.0000      0.0000      0.0000      0.0000      0.0000      0.0000      0.0000      0.0000      0.0000      0.0000      0.0000      0.0000      0.0000      0.0000      0.0000      0.0000      0.0000      0.0000      0.0000      0.0000      0.0000      0.0000      0.0000      0.0000      0.0000      0.0000      0.0000      0.0000      0.0000      0.0000      0.0000      0.0000      0.0000      0.0000      0.0000      0.0000      0.0000      0.0000      0.0000      0.0000      0.0000      0.0000      0.0000      0.0000      0.0000      0.0000      0.0000      0.0000      0.0000      0.0000      0.0000      0.0000      0.0000      0.0000      0.0000      0.0000      0.0000      0.0000      0.0000      0.0000      0.0000      0.0000      0.0000      0.0000
      0.0000      0.0000      0.0000      0.0000      0.0000      0.0000      0.0000      0.0000      0.0000      0.0000      0.0000      0.0000      0.0000      0.0000      0.0000      0.0000      0.0000      0.0000      0.0000      0.0000      0.0000      0.0000      0.0000      0.0000      0.0000      0.0000      0.0000      0.0000      0.0000      0.0000      0.0000      0.0000      0.0000      0.0000      0.0000      0.0000      0.0000      0.0000      0.0000      0.0000      0.0000      0.0000      0.0000      0.0000      0.0000      0.0000      0.0000      0.0000      0.0000      0.0000      0.0000      0.0000      0.0000      0.0000      0.0000      0.0000      0.0000      0.0000      0.0000      0.0000      0.0000      0.0000      0.0000      0.0000      0.0000      0.0000      0.0000      0.0000      0.0000      0.0000      0.0000      0.0000      0.0000      0.0000      0.0000      0.0000
 
