 Groundwater/Surface Water exchange (L3/T)
 for each MODFLOW River Cell
 Positive: River water seeps to the aquifer
 Negative: Groundwater flows from aquifer to river
 
 Day:           1
 Daily GW/SW Exchange for each River Cell
 Layer, Row, Column, Flow Rate
           1           6          73  0.0000000E+00
           1           7          73  0.0000000E+00
           1           8          73  0.0000000E+00
           1           9          63  0.0000000E+00
           1           9          72  0.0000000E+00
           1           9          73  0.0000000E+00
           1          10          62  0.0000000E+00
           1          10          72  0.0000000E+00
           1          11          58  0.0000000E+00
           1          11          62  0.0000000E+00
           1          11          71  0.0000000E+00
           1          11          72  0.0000000E+00
           1          12          57  0.0000000E+00
           1          12          62  0.0000000E+00
           1          12          71  0.0000000E+00
           1          13          57  0.0000000E+00
           1          13          62  0.0000000E+00
           1          13          69  0.0000000E+00
           1          13          70  0.0000000E+00
           1          13          71  0.0000000E+00
           1          14          58  0.0000000E+00
           1          14          62  0.0000000E+00
           1          14          68  0.0000000E+00
           1          14          69  0.0000000E+00
           1          15          55  0.0000000E+00
           1          15          56  0.0000000E+00
           1          15          57  0.0000000E+00
           1          15          58  0.0000000E+00
           1          15          59  0.0000000E+00
           1          15          60  0.0000000E+00
           1          15          63  0.0000000E+00
           1          15          64  0.0000000E+00
           1          15          65  0.0000000E+00
           1          15          66  0.0000000E+00
           1          15          67  0.0000000E+00
           1          15          68  0.0000000E+00
           1          15          69  0.0000000E+00
           1          16          53  0.0000000E+00
           1          16          54  0.0000000E+00
           1          16          55  0.0000000E+00
           1          16          60  0.0000000E+00
           1          16          61  0.0000000E+00
           1          16          63  0.0000000E+00
           1          16          64  0.0000000E+00
           1          16          69  0.0000000E+00
           1          16          70  0.0000000E+00
           1          17          62  0.0000000E+00
           1          17          63  0.0000000E+00
           1          17          70  0.0000000E+00
           1          18          62  0.0000000E+00
           1          19          62  0.0000000E+00
           1          20          62  0.0000000E+00
           1          21          62  0.0000000E+00
           1          22          62  0.0000000E+00
           1          23          62  0.0000000E+00
           1          24          54  0.0000000E+00
           1          24          62  0.0000000E+00
           1          25          46  0.0000000E+00
           1          25          54  0.0000000E+00
           1          25          62  0.0000000E+00
           1          26          46  0.0000000E+00
           1          26          54  0.0000000E+00
           1          26          62  0.0000000E+00
           1          26          63  0.0000000E+00
           1          26          64  0.0000000E+00
           1          27          46  0.0000000E+00
           1          27          54  0.0000000E+00
           1          27          62  0.0000000E+00
           1          27          64  0.0000000E+00
           1          27          65  0.0000000E+00
           1          27          66  0.0000000E+00
           1          27          67  0.0000000E+00
           1          28          46  0.0000000E+00
           1          28          53  0.0000000E+00
           1          28          62  0.0000000E+00
           1          29          38  0.0000000E+00
           1          29          46  0.0000000E+00
           1          29          53  0.0000000E+00
           1          29          61  0.0000000E+00
           1          30          37  0.0000000E+00
           1          30          47  0.0000000E+00
           1          30          53  0.0000000E+00
           1          30          61  0.0000000E+00
           1          31          37  0.0000000E+00
           1          31          47  0.0000000E+00
           1          31          48  0.0000000E+00
           1          31          53  0.0000000E+00
           1          31          60  0.0000000E+00
           1          31          61  0.0000000E+00
           1          32          37  0.0000000E+00
           1          32          48  0.0000000E+00
           1          32          52  0.0000000E+00
           1          32          53  0.0000000E+00
           1          32          59  0.0000000E+00
           1          32          60  0.0000000E+00
           1          33          38  0.0000000E+00
           1          33          39  0.0000000E+00
           1          33          40  0.0000000E+00
           1          33          49  0.0000000E+00
           1          33          52  0.0000000E+00
           1          33          59  0.0000000E+00
           1          34          37  0.0000000E+00
           1          34          38  0.0000000E+00
           1          34          39  0.0000000E+00
           1          34          40  0.0000000E+00
           1          34          41  0.0000000E+00
           1          34          49  0.0000000E+00
           1          34          52  0.0000000E+00
           1          34          58  0.0000000E+00
           1          34          59  0.0000000E+00
           1          35          37  0.0000000E+00
           1          35          49  0.0000000E+00
           1          35          50  0.0000000E+00
           1          35          51  0.0000000E+00
           1          35          52  0.0000000E+00
           1          35          58  0.0000000E+00
           1          36          37  0.0000000E+00
           1          36          49  0.0000000E+00
           1          36          57  0.0000000E+00
           1          36          58  0.0000000E+00
           1          37          36  0.0000000E+00
           1          37          49  0.0000000E+00
           1          37          53  0.0000000E+00
           1          38          53  0.0000000E+00
           1          38          54  0.0000000E+00
           1          37          54  0.0000000E+00
           1          37          55  0.0000000E+00
           1          37          56  0.0000000E+00
           1          37          57  0.0000000E+00
           1          37          58  0.0000000E+00
           1          38          36  0.0000000E+00
           1          38          49  0.0000000E+00
           1          38          50  0.0000000E+00
           1          38          51  0.0000000E+00
           1          38          52  0.0000000E+00
           1          38          59  0.0000000E+00
           1          39          35  0.0000000E+00
           1          39          50  0.0000000E+00
           1          39          51  0.0000000E+00
           1          40          34  0.0000000E+00
           1          40          35  0.0000000E+00
           1          40          49  0.0000000E+00
           1          41          34  0.0000000E+00
           1          41          35  0.0000000E+00
           1          41          49  0.0000000E+00
           1          42          34  0.0000000E+00
           1          42          49  0.0000000E+00
           1          43          35  0.0000000E+00
           1          43          49  0.0000000E+00
           1          44          35  0.0000000E+00
           1          44          49  0.0000000E+00
           1          45          35  0.0000000E+00
           1          45          47  0.0000000E+00
           1          45          49  0.0000000E+00
           1          46          35  0.0000000E+00
           1          46          47  0.0000000E+00
           1          46          49  0.0000000E+00
           1          47          32  0.0000000E+00
           1          47          33  0.0000000E+00
           1          47          34  0.0000000E+00
           1          47          35  0.0000000E+00
           1          47          36  0.0000000E+00
           1          47          40  0.0000000E+00
           1          47          47  0.0000000E+00
           1          47          48  0.0000000E+00
           1          47          49  0.0000000E+00
           1          47          50  0.0000000E+00
           1          48          32  0.0000000E+00
           1          48          36  0.0000000E+00
           1          48          37  0.0000000E+00
           1          48          39  0.0000000E+00
           1          48          40  0.0000000E+00
           1          48          47  0.0000000E+00
           1          48          48  0.0000000E+00
           1          48          49  0.0000000E+00
           1          48          50  0.0000000E+00
           1          48          51  0.0000000E+00
           1          48          52  0.0000000E+00
           1          48          62  0.0000000E+00
           1          48          63  0.0000000E+00
           1          49          37  0.0000000E+00
           1          49          38  0.0000000E+00
           1          49          39  0.0000000E+00
           1          50          47  0.0000000E+00
           1          49          47  0.0000000E+00
           1          49          48  0.0000000E+00
           1          50          48  0.0000000E+00
           1          49          61  0.0000000E+00
           1          49          62  0.0000000E+00
           1          50          38  0.0000000E+00
           1          50          39  0.0000000E+00
           1          50          46  0.0000000E+00
           1          50          59  0.0000000E+00
           1          50          60  0.0000000E+00
           1          51          39  0.0000000E+00
           1          51          46  0.0000000E+00
           1          51          47  0.0000000E+00
           1          51          58  0.0000000E+00
           1          51          59  0.0000000E+00
           1          52          40  0.0000000E+00
           1          52          46  0.0000000E+00
           1          52          47  0.0000000E+00
           1          52          58  0.0000000E+00
           1          53          40  0.0000000E+00
           1          53          46  0.0000000E+00
           1          53          47  0.0000000E+00
           1          53          57  0.0000000E+00
           1          53          58  -453.7596    
           1          54          40  0.0000000E+00
           1          54          41  0.0000000E+00
           1          54          46  0.0000000E+00
           1          54          57  0.0000000E+00
           1          55          41  0.0000000E+00
           1          55          46  0.0000000E+00
           1          55          56  0.0000000E+00
           1          55          57  0.0000000E+00
           1          56          41  0.0000000E+00
           1          56          45  0.0000000E+00
           1          56          56  0.0000000E+00
           1          57          41  0.0000000E+00
           1          57          45  0.0000000E+00
           1          57          46  0.0000000E+00
           1          57          56  0.0000000E+00
           1          58          31  0.0000000E+00
           1          58          41  0.0000000E+00
           1          58          42  0.0000000E+00
           1          58          44  0.0000000E+00
           1          58          45  0.0000000E+00
           1          58          46  0.0000000E+00
           1          58          56  0.0000000E+00
           1          59          31  0.0000000E+00
           1          59          32  0.0000000E+00
           1          59          42  0.0000000E+00
           1          59          43  0.0000000E+00
           1          59          44  0.0000000E+00
           1          59          45  0.0000000E+00
           1          59          56  0.0000000E+00
           1          60          32  0.0000000E+00
           1          60          42  0.0000000E+00
           1          60          43  0.0000000E+00
           1          60          57  0.0000000E+00
           1          61          32  0.0000000E+00
           1          61          42  0.0000000E+00
           1          61          57  0.0000000E+00
           1          62          32  0.0000000E+00
           1          62          33  0.0000000E+00
           1          62          41  0.0000000E+00
           1          62          42  0.0000000E+00
           1          62          57  0.0000000E+00
           1          63          33  0.0000000E+00
           1          63          41  0.0000000E+00
           1          63          57  0.0000000E+00
           1          64          33  0.0000000E+00
           1          65          33  0.0000000E+00
           1          64          41  0.0000000E+00
           1          64          57  0.0000000E+00
           1          65          56  0.0000000E+00
           1          65          57  0.0000000E+00
           1          66          28  0.0000000E+00
           1          66          34  0.0000000E+00
           1          66          40  0.0000000E+00
           1          66          55  0.0000000E+00
           1          66          56  0.0000000E+00
           1          67          28  0.0000000E+00
           1          67          35  0.0000000E+00
           1          67          40  0.0000000E+00
           1          67          53  0.0000000E+00
           1          67          54  0.0000000E+00
           1          67          55  0.0000000E+00
           1          68          28  0.0000000E+00
           1          68          36  0.0000000E+00
           1          68          40  0.0000000E+00
           1          68          51  0.0000000E+00
           1          68          52  0.0000000E+00
           1          68          53  0.0000000E+00
           1          69          28  0.0000000E+00
           1          69          29  0.0000000E+00
           1          69          36  0.0000000E+00
           1          69          39  0.0000000E+00
           1          69          40  0.0000000E+00
           1          69          47  0.0000000E+00
           1          69          48  0.0000000E+00
           1          69          49  0.0000000E+00
           1          69          50  0.0000000E+00
           1          69          51  0.0000000E+00
           1          70          29  0.0000000E+00
           1          70          30  0.0000000E+00
           1          71          30  0.0000000E+00
           1          70          36  0.0000000E+00
           1          70          38  0.0000000E+00
           1          70          39  0.0000000E+00
           1          70          46  0.0000000E+00
           1          70          47  0.0000000E+00
           1          71          31  0.0000000E+00
           1          71          32  0.0000000E+00
           1          71          37  0.0000000E+00
           1          71          38  0.0000000E+00
           1          71          45  0.0000000E+00
           1          71          46  0.0000000E+00
           1          72          30  0.0000000E+00
           1          72          31  0.0000000E+00
           1          72          32  0.0000000E+00
           1          72          37  0.0000000E+00
           1          72          44  0.0000000E+00
           1          72          45  0.0000000E+00
           1          73          31  0.0000000E+00
           1          73          32  0.0000000E+00
           1          73          36  0.0000000E+00
           1          73          37  0.0000000E+00
           1          73          44  0.0000000E+00
           1          74          32  0.0000000E+00
           1          74          33  0.0000000E+00
           1          74          34  0.0000000E+00
           1          74          35  0.0000000E+00
           1          74          36  0.0000000E+00
           1          74          44  0.0000000E+00
           1          75          36  0.0000000E+00
           1          75          44  0.0000000E+00
           1          76          37  0.0000000E+00
           1          76          45  0.0000000E+00
           1          77          37  0.0000000E+00
           1          77          45  0.0000000E+00
           1          77          46  0.0000000E+00
           1          78          37  0.0000000E+00
           1          78          46  0.0000000E+00
           1          79          33  0.0000000E+00
           1          80          34  0.0000000E+00
           1          79          34  0.0000000E+00
           1          79          37  0.0000000E+00
           1          79          46  0.0000000E+00
           1          80          47  0.0000000E+00
           1          80          35  0.0000000E+00
           1          80          37  0.0000000E+00
           1          80          38  0.0000000E+00
           1          81          36  0.0000000E+00
           1          81          38  0.0000000E+00
           1          81          47  0.0000000E+00
           1          82          35  0.0000000E+00
           1          82          37  0.0000000E+00
           1          82          38  0.0000000E+00
           1          82          47  0.0000000E+00
           1          83          47  0.0000000E+00
           1          83          35  0.0000000E+00
           1          83          36  0.0000000E+00
           1          83          37  0.0000000E+00
           1          84          35  0.0000000E+00
           1          84          47  0.0000000E+00
           1          85          35  0.0000000E+00
           1          85          46  0.0000000E+00
           1          85          47  0.0000000E+00
           1          86          35  0.0000000E+00
           1          86          46  0.0000000E+00
           1          87          34  0.0000000E+00
           1          87          35  0.0000000E+00
           1          87          45  0.0000000E+00
           1          87          46  0.0000000E+00
           1          87          49  0.0000000E+00
           1          88          33  0.0000000E+00
           1          88          34  0.0000000E+00
           1          88          45  0.0000000E+00
           1          88          47  0.0000000E+00
           1          89          47  0.0000000E+00
           1          88          48  0.0000000E+00
           1          88          49  0.0000000E+00
           1          89          33  0.0000000E+00
           1          89          42  0.0000000E+00
           1          89          44  0.0000000E+00
           1          89          45  0.0000000E+00
           1          89          46  0.0000000E+00
           1          90          33  0.0000000E+00
           1          90          38  0.0000000E+00
           1          90          39  0.0000000E+00
           1          90          40  0.0000000E+00
           1          90          41  0.0000000E+00
           1          90          42  0.0000000E+00
           1          90          43  0.0000000E+00
           1          90          44  0.0000000E+00
           1          90          45  0.0000000E+00
           1          90          46  0.0000000E+00
           1          91          33  0.0000000E+00
           1          91          37  0.0000000E+00
           1          91          38  0.0000000E+00
           1          91          41  0.0000000E+00
           1          91          42  0.0000000E+00
           1          91          43  0.0000000E+00
           1          91          44  0.0000000E+00
           1          92          33  0.0000000E+00
           1          92          37  0.0000000E+00
           1          93          33  0.0000000E+00
           1          93          34  0.0000000E+00
           1          93          36  0.0000000E+00
           1          93          37  0.0000000E+00
           1          94          34  0.0000000E+00
           1          94          36  0.0000000E+00
           1          95          34  0.0000000E+00
           1          95          36  0.0000000E+00
           1          96          34  0.0000000E+00
           1          96          35  0.0000000E+00
           1          96          36  0.0000000E+00
           1          97          34  0.0000000E+00
           1          98          34  0.0000000E+00
           1          97          35  0.0000000E+00
           1          98          33  0.0000000E+00
           1          99          34  0.0000000E+00
           1         100          34  0.0000000E+00
           1         101          30  0.0000000E+00
           1         101          33  0.0000000E+00
           1         102          29  0.0000000E+00
           1         102          33  0.0000000E+00
           1         103          29  0.0000000E+00
           1         103          33  0.0000000E+00
           1         103          36  0.0000000E+00
           1         104          29  0.0000000E+00
           1         104          34  0.0000000E+00
           1         104          35  0.0000000E+00
           1         105          30  0.0000000E+00
           1         105          34  0.0000000E+00
           1         106          28  0.0000000E+00
           1         107          28  0.0000000E+00
           1         106          30  0.0000000E+00
           1         106          33  0.0000000E+00
           1         107          29  0.0000000E+00
           1         107          30  0.0000000E+00
           1         107          33  0.0000000E+00
           1         108          29  0.0000000E+00
           1         108          30  0.0000000E+00
           1         108          32  0.0000000E+00
           1         108          33  0.0000000E+00
           1         109          29  0.0000000E+00
           1         109          30  0.0000000E+00
           1         109          32  0.0000000E+00
           1         110          30  0.0000000E+00
           1         110          32  0.0000000E+00
           1         110          34  0.0000000E+00
           1         110          35  0.0000000E+00
           1         110          36  0.0000000E+00
           1         111          29  0.0000000E+00
           1         111          30  0.0000000E+00
           1         111          32  0.0000000E+00
           1         111          33  0.0000000E+00
           1         111          34  0.0000000E+00
           1         112          29  0.0000000E+00
           1         112          31  0.0000000E+00
           1         112          32  0.0000000E+00
           1         112          33  0.0000000E+00
           1         113          25  0.0000000E+00
           1         113          28  0.0000000E+00
           1         113          29  0.0000000E+00
           1         114          25  0.0000000E+00
           1         114          27  0.0000000E+00
           1         114          28  0.0000000E+00
           1         115          25  0.0000000E+00
           1         115          26  0.0000000E+00
           1         115          27  0.0000000E+00
           1         115          28  0.0000000E+00
           1         116          24  0.0000000E+00
           1         116          25  0.0000000E+00
           1         116          26  0.0000000E+00
           1         117          23  0.0000000E+00
           1         117          24  0.0000000E+00
           1         117          25  0.0000000E+00
           1         118          22  0.0000000E+00
           1         118          23  0.0000000E+00
           1         118          25  0.0000000E+00
           1         118          26  0.0000000E+00
           1         118          27  0.0000000E+00
           1         118          28  0.0000000E+00
           1         118          29  0.0000000E+00
           1         119          19  0.0000000E+00
           1         119          21  0.0000000E+00
           1         119          22  0.0000000E+00
           1         120          19  0.0000000E+00
           1         120          21  0.0000000E+00
           1         121          19  0.0000000E+00
           1         121          20  0.0000000E+00
           1         121          21  0.0000000E+00
           1         122          18  0.0000000E+00
           1         122          19  0.0000000E+00
           1         122          20  0.0000000E+00
           1         123          16  0.0000000E+00
           1         123          17  0.0000000E+00
           1         123          18  0.0000000E+00
           1         124          14  0.0000000E+00
           1         124          15  0.0000000E+00
           1         124          16  0.0000000E+00
           1         125          11  0.0000000E+00
           1         125          12  0.0000000E+00
           1         125          13  0.0000000E+00
           1         126           9  0.0000000E+00
           1         126          10  0.0000000E+00
           1         126          11  0.0000000E+00
           1         127           7  0.0000000E+00
           1         127           8  0.0000000E+00
           1         127           9  0.0000000E+00
           1         128           6  0.0000000E+00
           1         128           7  0.0000000E+00
           1         129           4  0.0000000E+00
           1         129           5  0.0000000E+00
           1         129           6  0.0000000E+00
           1         130           2  0.0000000E+00
           1         130           3  0.0000000E+00
           1         130           4  0.0000000E+00
           1         131           1  0.0000000E+00
           1         131           2  0.0000000E+00
 
 Day:         100
 Daily GW/SW Exchange for each River Cell
 Layer, Row, Column, Flow Rate
           1           6          73  0.0000000E+00
           1           7          73  0.0000000E+00
           1           8          73  0.0000000E+00
           1           9          63  0.0000000E+00
           1           9          72  0.0000000E+00
           1           9          73  0.0000000E+00
           1          10          62  0.0000000E+00
           1          10          72  0.0000000E+00
           1          11          58  0.0000000E+00
           1          11          62  0.0000000E+00
           1          11          71  0.0000000E+00
           1          11          72  0.0000000E+00
           1          12          57  0.0000000E+00
           1          12          62  0.0000000E+00
           1          12          71  0.0000000E+00
           1          13          57  0.0000000E+00
           1          13          62  0.0000000E+00
           1          13          69  0.0000000E+00
           1          13          70  0.0000000E+00
           1          13          71  0.0000000E+00
           1          14          58  0.0000000E+00
           1          14          62  0.0000000E+00
           1          14          68  0.0000000E+00
           1          14          69  0.0000000E+00
           1          15          55  0.0000000E+00
           1          15          56  0.0000000E+00
           1          15          57  0.0000000E+00
           1          15          58  0.0000000E+00
           1          15          59  0.0000000E+00
           1          15          60  0.0000000E+00
           1          15          63  0.0000000E+00
           1          15          64  0.0000000E+00
           1          15          65  0.0000000E+00
           1          15          66  0.0000000E+00
           1          15          67  0.0000000E+00
           1          15          68  0.0000000E+00
           1          15          69  0.0000000E+00
           1          16          53  0.0000000E+00
           1          16          54  0.0000000E+00
           1          16          55  0.0000000E+00
           1          16          60  0.0000000E+00
           1          16          61  0.0000000E+00
           1          16          63  0.0000000E+00
           1          16          64  0.0000000E+00
           1          16          69  0.0000000E+00
           1          16          70  0.0000000E+00
           1          17          62  0.0000000E+00
           1          17          63  0.0000000E+00
           1          17          70  0.0000000E+00
           1          18          62  0.0000000E+00
           1          19          62  0.0000000E+00
           1          20          62  0.0000000E+00
           1          21          62  0.0000000E+00
           1          22          62  0.0000000E+00
           1          23          62  0.0000000E+00
           1          24          54  0.0000000E+00
           1          24          62  0.0000000E+00
           1          25          46  0.0000000E+00
           1          25          54  0.0000000E+00
           1          25          62  0.0000000E+00
           1          26          46  0.0000000E+00
           1          26          54  0.0000000E+00
           1          26          62  0.0000000E+00
           1          26          63  0.0000000E+00
           1          26          64  0.0000000E+00
           1          27          46  0.0000000E+00
           1          27          54  0.0000000E+00
           1          27          62  0.0000000E+00
           1          27          64  0.0000000E+00
           1          27          65  0.0000000E+00
           1          27          66  0.0000000E+00
           1          27          67  0.0000000E+00
           1          28          46  0.0000000E+00
           1          28          53  0.0000000E+00
           1          28          62  0.0000000E+00
           1          29          38  0.0000000E+00
           1          29          46  0.0000000E+00
           1          29          53  0.0000000E+00
           1          29          61  0.0000000E+00
           1          30          37  0.0000000E+00
           1          30          47  0.0000000E+00
           1          30          53  0.0000000E+00
           1          30          61  0.0000000E+00
           1          31          37  0.0000000E+00
           1          31          47  0.0000000E+00
           1          31          48  0.0000000E+00
           1          31          53  0.0000000E+00
           1          31          60  0.0000000E+00
           1          31          61  0.0000000E+00
           1          32          37  0.0000000E+00
           1          32          48  0.0000000E+00
           1          32          52  0.0000000E+00
           1          32          53  0.0000000E+00
           1          32          59  0.0000000E+00
           1          32          60  0.0000000E+00
           1          33          38  0.0000000E+00
           1          33          39  0.0000000E+00
           1          33          40  0.0000000E+00
           1          33          49  0.0000000E+00
           1          33          52  0.0000000E+00
           1          33          59  0.0000000E+00
           1          34          37   14.37511    
           1          34          38  0.0000000E+00
           1          34          39  0.0000000E+00
           1          34          40  0.0000000E+00
           1          34          41  0.0000000E+00
           1          34          49  0.0000000E+00
           1          34          52  0.0000000E+00
           1          34          58  0.0000000E+00
           1          34          59  0.0000000E+00
           1          35          37   44.64481    
           1          35          49   96.51420    
           1          35          50  0.0000000E+00
           1          35          51  0.0000000E+00
           1          35          52  0.0000000E+00
           1          35          58  0.0000000E+00
           1          36          37   49.90496    
           1          36          49   190.3264    
           1          36          57   781.5139    
           1          36          58  0.0000000E+00
           1          37          36   45.15871    
           1          37          49   184.7961    
           1          37          53   3060.341    
           1          38          53   1016.791    
           1          38          54   396.8126    
           1          37          54   3895.740    
           1          37          55   3912.773    
           1          37          56   4179.860    
           1          37          57   799.4979    
           1          37          58  0.0000000E+00
           1          38          36   54.50750    
           1          38          49   61.81788    
           1          38          50   176.6987    
           1          38          51   3455.708    
           1          38          52   4094.150    
           1          38          59  0.0000000E+00
           1          39          35   46.40798    
           1          39          50   2753.578    
           1          39          51   765.2585    
           1          40          34   20.65390    
           1          40          35   53.17358    
           1          40          49   430.9788    
           1          41          34   21.08150    
           1          41          35   30.12849    
           1          41          49   108.1275    
           1          42          34   38.39113    
           1          42          49   542.0497    
           1          43          35   48.35753    
           1          43          49   461.7530    
           1          44          35   44.76841    
           1          44          49   494.4219    
           1          45          35   45.74710    
           1          45          47  0.0000000E+00
           1          45          49  -2620.646    
           1          46          35   49.37609    
           1          46          47  0.0000000E+00
           1          46          49  -2377.229    
           1          47          32  0.0000000E+00
           1          47          33  0.0000000E+00
           1          47          34  0.0000000E+00
           1          47          35   15.83019    
           1          47          36   1070.694    
           1          47          40  0.0000000E+00
           1          47          47  0.0000000E+00
           1          47          48   221.4609    
           1          47          49  0.0000000E+00
           1          47          50  0.0000000E+00
           1          48          32  0.0000000E+00
           1          48          36   91.50061    
           1          48          37   1183.094    
           1          48          39  0.0000000E+00
           1          48          40  0.0000000E+00
           1          48          47  0.0000000E+00
           1          48          48   375.7244    
           1          48          49  0.0000000E+00
           1          48          50  -103.4256    
           1          48          51  -409.6723    
           1          48          52  -534.1506    
           1          48          62  0.0000000E+00
           1          48          63  0.0000000E+00
           1          49          37   961.9252    
           1          49          38   697.8052    
           1          49          39  0.0000000E+00
           1          50          47   391.6839    
           1          49          47  0.0000000E+00
           1          49          48   255.6787    
           1          50          48   8.481565    
           1          49          61  0.0000000E+00
           1          49          62  0.0000000E+00
           1          50          38   850.7365    
           1          50          39   1986.036    
           1          50          46  0.0000000E+00
           1          50          59  -1000.590    
           1          50          60  0.0000000E+00
           1          51          39   2932.846    
           1          51          46   11.35709    
           1          51          47   547.5907    
           1          51          58  0.0000000E+00
           1          51          59  -1759.058    
           1          52          40   4582.162    
           1          52          46   32.69501    
           1          52          47   444.8979    
           1          52          58  -1689.475    
           1          53          40   3889.179    
           1          53          46   93.98803    
           1          53          47   483.4295    
           1          53          57  -1054.891    
           1          53          58  -1295.713    
           1          54          40   681.1836    
           1          54          41   3182.906    
           1          54          46   2314.096    
           1          54          57  -1369.227    
           1          55          41   3336.064    
           1          55          46   2060.347    
           1          55          56  -1204.705    
           1          55          57  -1015.528    
           1          56          41   3203.455    
           1          56          45   1616.999    
           1          56          56  -1352.970    
           1          57          41   3616.997    
           1          57          45   2238.625    
           1          57          46  0.0000000E+00
           1          57          56  -1217.401    
           1          58          31  0.0000000E+00
           1          58          41   373.4248    
           1          58          42   3793.809    
           1          58          44   997.9624    
           1          58          45   542.4697    
           1          58          46  0.0000000E+00
           1          58          56  0.0000000E+00
           1          59          31  0.0000000E+00
           1          59          32  0.0000000E+00
           1          59          42   683.1948    
           1          59          43   5957.037    
           1          59          44   562.9971    
           1          59          45  0.0000000E+00
           1          59          56  0.0000000E+00
           1          60          32  0.0000000E+00
           1          60          42   18.16366    
           1          60          43   1692.887    
           1          60          57  0.0000000E+00
           1          61          32  0.0000000E+00
           1          61          42   1092.045    
           1          61          57  0.0000000E+00
           1          62          32  0.0000000E+00
           1          62          33  0.0000000E+00
           1          62          41   139.2557    
           1          62          42   931.5099    
           1          62          57  0.0000000E+00
           1          63          33  0.0000000E+00
           1          63          41   1083.232    
           1          63          57  0.0000000E+00
           1          64          33  0.0000000E+00
           1          65          33  0.0000000E+00
           1          64          41   514.9045    
           1          64          57  0.0000000E+00
           1          65          56  0.0000000E+00
           1          65          57  0.0000000E+00
           1          66          28  0.0000000E+00
           1          66          34  0.0000000E+00
           1          66          40   784.9885    
           1          66          55  0.0000000E+00
           1          66          56  0.0000000E+00
           1          67          28  0.0000000E+00
           1          67          35  0.0000000E+00
           1          67          40   856.2407    
           1          67          53  0.0000000E+00
           1          67          54  0.0000000E+00
           1          67          55  0.0000000E+00
           1          68          28  0.0000000E+00
           1          68          36  0.0000000E+00
           1          68          40  -665.7374    
           1          68          51  0.0000000E+00
           1          68          52  0.0000000E+00
           1          68          53  0.0000000E+00
           1          69          28  0.0000000E+00
           1          69          29  0.0000000E+00
           1          69          36  0.0000000E+00
           1          69          39   54.49105    
           1          69          40  -993.1183    
           1          69          47  0.0000000E+00
           1          69          48  0.0000000E+00
           1          69          49  0.0000000E+00
           1          69          50  0.0000000E+00
           1          69          51  0.0000000E+00
           1          70          29  0.0000000E+00
           1          70          30  0.0000000E+00
           1          71          30  0.0000000E+00
           1          70          36  0.0000000E+00
           1          70          38   236.1281    
           1          70          39  -997.2872    
           1          70          46  0.0000000E+00
           1          70          47  0.0000000E+00
           1          71          31  0.0000000E+00
           1          71          32  0.0000000E+00
           1          71          37   76.85235    
           1          71          38  -912.9806    
           1          71          45  0.0000000E+00
           1          71          46  0.0000000E+00
           1          72          30  0.0000000E+00
           1          72          31  0.0000000E+00
           1          72          32   10.27929    
           1          72          37  -719.7667    
           1          72          44  0.0000000E+00
           1          72          45  0.0000000E+00
           1          73          31  0.0000000E+00
           1          73          32   154.5737    
           1          73          36  -117.5380    
           1          73          37  -144.7935    
           1          73          44  0.0000000E+00
           1          74          32   25.34056    
           1          74          33   130.3573    
           1          74          34   129.0712    
           1          74          35   123.2805    
           1          74          36  -1203.418    
           1          74          44  0.0000000E+00
           1          75          36   335.1255    
           1          75          44  0.0000000E+00
           1          76          37  -544.1096    
           1          76          45  0.0000000E+00
           1          77          37  -1145.635    
           1          77          45  0.0000000E+00
           1          77          46  0.0000000E+00
           1          78          37   7126.540    
           1          78          46   498.8301    
           1          79          33  0.0000000E+00
           1          80          34  0.0000000E+00
           1          79          34  0.0000000E+00
           1          79          37   5281.203    
           1          79          46   534.3334    
           1          80          47   1257.430    
           1          80          35  0.0000000E+00
           1          80          37   1122.332    
           1          80          38   3506.473    
           1          81          36  0.0000000E+00
           1          81          38   7299.067    
           1          81          47   671.5346    
           1          82          35  0.0000000E+00
           1          82          37   3943.361    
           1          82          38   11179.88    
           1          82          47   879.1801    
           1          83          47   1510.427    
           1          83          35   2279.614    
           1          83          36   6552.380    
           1          83          37   1670.512    
           1          84          35   3742.207    
           1          84          47   781.9941    
           1          85          35   3754.754    
           1          85          46   402.3566    
           1          85          47   328.6548    
           1          86          35   3933.227    
           1          86          46   855.5251    
           1          87          34   2647.176    
           1          87          35   2641.268    
           1          87          45   158.8139    
           1          87          46   592.8245    
           1          87          49  0.0000000E+00
           1          88          33   826.9802    
           1          88          34   4539.662    
           1          88          45   883.4526    
           1          88          47  0.0000000E+00
           1          89          47  0.0000000E+00
           1          88          48  0.0000000E+00
           1          88          49  0.0000000E+00
           1          89          33   723.6976    
           1          89          42  0.0000000E+00
           1          89          44   515.6868    
           1          89          45   561.4650    
           1          89          46  0.0000000E+00
           1          90          33   2888.550    
           1          90          38   58.63177    
           1          90          39   305.8853    
           1          90          40   441.5835    
           1          90          41   265.1099    
           1          90          42   66.91566    
           1          90          43   837.9666    
           1          90          44   161.9266    
           1          90          45  0.0000000E+00
           1          90          46  0.0000000E+00
           1          91          33   4411.017    
           1          91          37   138.7829    
           1          91          38   379.2371    
           1          91          41   9.932052    
           1          91          42   305.8697    
           1          91          43  0.0000000E+00
           1          91          44  0.0000000E+00
           1          92          33   4650.850    
           1          92          37   362.5790    
           1          93          33   2189.793    
           1          93          34   3474.549    
           1          93          36   302.9968    
           1          93          37   61.59488    
           1          94          34   4514.389    
           1          94          36   320.4904    
           1          95          34   4295.158    
           1          95          36   384.0399    
           1          96          34   4344.777    
           1          96          35   327.9794    
           1          96          36   53.76958    
           1          97          34   4257.686    
           1          98          34   1992.193    
           1          97          35   670.3008    
           1          98          33   992.1567    
           1          99          34   2339.199    
           1         100          34   321.5457    
           1         101          30  0.0000000E+00
           1         101          33   3495.238    
           1         102          29  0.0000000E+00
           1         102          33   2450.818    
           1         103          29  0.0000000E+00
           1         103          33   301.4400    
           1         103          36  0.0000000E+00
           1         104          29  0.0000000E+00
           1         104          34   1919.714    
           1         104          35  0.0000000E+00
           1         105          30  0.0000000E+00
           1         105          34  -180.4627    
           1         106          28  0.0000000E+00
           1         107          28  0.0000000E+00
           1         106          30  0.0000000E+00
           1         106          33  -327.0001    
           1         107          29  0.0000000E+00
           1         107          30  0.0000000E+00
           1         107          33  -455.5912    
           1         108          29   8.917511    
           1         108          30   108.5435    
           1         108          32  -114.1108    
           1         108          33  -98.33006    
           1         109          29   3.607281    
           1         109          30   123.7493    
           1         109          32  -323.8465    
           1         110          30   139.0987    
           1         110          32  -238.3894    
           1         110          34  0.0000000E+00
           1         110          35  0.0000000E+00
           1         110          36  0.0000000E+00
           1         111          29   370.4698    
           1         111          30  -78.93821    
           1         111          32  -78.45728    
           1         111          33  0.0000000E+00
           1         111          34  0.0000000E+00
           1         112          29  -189.6191    
           1         112          31  -20.34431    
           1         112          32   888.6387    
           1         112          33  0.0000000E+00
           1         113          25  0.0000000E+00
           1         113          28  -43.70052    
           1         113          29  -99.58895    
           1         114          25  0.0000000E+00
           1         114          27   47.50938    
           1         114          28  -237.6828    
           1         115          25  0.0000000E+00
           1         115          26  -175.4337    
           1         115          27  -142.0146    
           1         115          28   35.43551    
           1         116          24   218.6793    
           1         116          25  -172.9613    
           1         116          26  -24.40748    
           1         117          23   77.24524    
           1         117          24  -171.1784    
           1         117          25  0.0000000E+00
           1         118          22   154.1823    
           1         118          23  -180.9451    
           1         118          25  0.0000000E+00
           1         118          26  0.0000000E+00
           1         118          27  0.0000000E+00
           1         118          28  0.0000000E+00
           1         118          29  0.0000000E+00
           1         119          19  0.0000000E+00
           1         119          21   114.2880    
           1         119          22  -131.7222    
           1         120          19  0.0000000E+00
           1         120          21  -41.51466    
           1         121          19  0.0000000E+00
           1         121          20   12.95502    
           1         121          21  -32.51108    
           1         122          18   510.4466    
           1         122          19   12.42912    
           1         122          20  -29.59243    
           1         123          16   692.9005    
           1         123          17  -3.319923    
           1         123          18  -6.221273    
           1         124          14   8.260631    
           1         124          15  -32.79231    
           1         124          16   17.24719    
           1         125          11  -22.24718    
           1         125          12  -3.428653    
           1         125          13   2.316501    
           1         126           9  -15.20521    
           1         126          10  -16.92900    
           1         126          11   1022.758    
           1         127           7  -1.208719    
           1         127           8  -35.78781    
           1         127           9   1208.034    
           1         128           6  -42.11963    
           1         128           7  -43.07824    
           1         129           4  -69.55000    
           1         129           5   59.54897    
           1         129           6   115.3471    
           1         130           2  -276.3831    
           1         130           3  -131.4257    
           1         130           4   162.0183    
           1         131           1   2451.882    
           1         131           2   38.12088    
