 Groundwater/Surface Water exchange (m3/day)
 for each APEX subarea
 --Calculated from MODFLOW River Package--
 Positive: Volume entering stream from the aquifer
 Negative: Volume seeps from stream to the aquifer
 
 Day:           1
 Daily GW/SW Exchange for each Subarea
 Aquifer/Stream       Drain/Stream
  0.0000000E+00  0.0000000E+00
  0.0000000E+00  0.0000000E+00
  0.0000000E+00  0.0000000E+00
  0.0000000E+00  0.0000000E+00
  0.0000000E+00  0.0000000E+00
  0.0000000E+00  0.0000000E+00
  0.0000000E+00  0.0000000E+00
  0.0000000E+00  0.0000000E+00
  0.0000000E+00  0.0000000E+00
  0.0000000E+00  0.0000000E+00
  0.0000000E+00  0.0000000E+00
  0.0000000E+00  0.0000000E+00
  0.0000000E+00  0.0000000E+00
  0.0000000E+00  0.0000000E+00
  0.0000000E+00  0.0000000E+00
  0.0000000E+00  0.0000000E+00
  0.0000000E+00  0.0000000E+00
  0.0000000E+00  0.0000000E+00
  0.0000000E+00  0.0000000E+00
  0.0000000E+00  0.0000000E+00
  0.0000000E+00  0.0000000E+00
  0.0000000E+00  0.0000000E+00
  0.0000000E+00  0.0000000E+00
  0.0000000E+00  0.0000000E+00
  0.0000000E+00  0.0000000E+00
  0.0000000E+00  0.0000000E+00
  0.0000000E+00  0.0000000E+00
  0.0000000E+00  0.0000000E+00
  0.0000000E+00  0.0000000E+00
  0.0000000E+00  0.0000000E+00
  0.0000000E+00  0.0000000E+00
  0.0000000E+00  0.0000000E+00
  0.0000000E+00  0.0000000E+00
  0.0000000E+00  0.0000000E+00
  0.0000000E+00  0.0000000E+00
  0.0000000E+00  0.0000000E+00
  0.0000000E+00  0.0000000E+00
  0.0000000E+00  0.0000000E+00
  0.0000000E+00  0.0000000E+00
  0.0000000E+00  0.0000000E+00
  0.0000000E+00  0.0000000E+00
  0.0000000E+00  0.0000000E+00
  0.0000000E+00  0.0000000E+00
   453.7596      0.0000000E+00
  0.0000000E+00  0.0000000E+00
  0.0000000E+00  0.0000000E+00
  0.0000000E+00  0.0000000E+00
  0.0000000E+00  0.0000000E+00
  0.0000000E+00  0.0000000E+00
  0.0000000E+00  0.0000000E+00
  0.0000000E+00  0.0000000E+00
  0.0000000E+00  0.0000000E+00
  0.0000000E+00  0.0000000E+00
  0.0000000E+00  0.0000000E+00
  0.0000000E+00  0.0000000E+00
  0.0000000E+00  0.0000000E+00
  0.0000000E+00  0.0000000E+00
  0.0000000E+00  0.0000000E+00
  0.0000000E+00  0.0000000E+00
  0.0000000E+00  0.0000000E+00
  0.0000000E+00  0.0000000E+00
  0.0000000E+00  0.0000000E+00
  0.0000000E+00  0.0000000E+00
  0.0000000E+00  0.0000000E+00
  0.0000000E+00  0.0000000E+00
  0.0000000E+00  0.0000000E+00
  0.0000000E+00  0.0000000E+00
  0.0000000E+00  0.0000000E+00
  0.0000000E+00  0.0000000E+00
  0.0000000E+00  0.0000000E+00
  0.0000000E+00  0.0000000E+00
  0.0000000E+00  0.0000000E+00
  0.0000000E+00  0.0000000E+00
  0.0000000E+00  0.0000000E+00
  0.0000000E+00  0.0000000E+00
 
 Day:         100
 Daily GW/SW Exchange for each Subarea
 Aquifer/Stream       Drain/Stream
  0.0000000E+00  0.0000000E+00
  0.0000000E+00  0.0000000E+00
  0.0000000E+00  0.0000000E+00
  0.0000000E+00  0.0000000E+00
  0.0000000E+00  0.0000000E+00
  0.0000000E+00  0.0000000E+00
  0.0000000E+00  0.0000000E+00
  0.0000000E+00  0.0000000E+00
  0.0000000E+00  0.0000000E+00
  0.0000000E+00  0.0000000E+00
  0.0000000E+00  0.0000000E+00
  0.0000000E+00  0.0000000E+00
  0.0000000E+00  0.0000000E+00
  0.0000000E+00  0.0000000E+00
  -2.948494      0.0000000E+00
  -2.339460      0.0000000E+00
  -13.91372      0.0000000E+00
  -37.33189      0.0000000E+00
  -401.8791      0.0000000E+00
  -672.0400      0.0000000E+00
  -595.6516      0.0000000E+00
  -537.2679      0.0000000E+00
  -26463.81      0.0000000E+00
  -705.7833      0.0000000E+00
   1770.294      0.0000000E+00
  -69.88749      0.0000000E+00
   979.2397      0.0000000E+00
  -701.1144      0.0000000E+00
  -4772.325      0.0000000E+00
  -252.6777      0.0000000E+00
  -2558.877      0.0000000E+00
  -24729.52      0.0000000E+00
  -8781.015      0.0000000E+00
  -654.9202      0.0000000E+00
  -9456.841      0.0000000E+00
  -4197.812      0.0000000E+00
  -9.230929      0.0000000E+00
   318.0569      0.0000000E+00
  -3376.813      0.0000000E+00
 -6.2191054E-02  0.0000000E+00
   165.2347      0.0000000E+00
   705.3840      0.0000000E+00
  -456.8190      0.0000000E+00
   12951.36      0.0000000E+00
  -61.32837      0.0000000E+00
  -11622.22      0.0000000E+00
  -1476.085      0.0000000E+00
  -34891.70      0.0000000E+00
  -94.54412      0.0000000E+00
  -1016.598      0.0000000E+00
  -24707.84      0.0000000E+00
  -11318.90      0.0000000E+00
  -380.9812      0.0000000E+00
  -128.3203      0.0000000E+00
  -32858.09      0.0000000E+00
  -7416.629      0.0000000E+00
  -1295.007      0.0000000E+00
  -7247.247      0.0000000E+00
  -1016.475      0.0000000E+00
  -2.964388      0.0000000E+00
  -1.491324      0.0000000E+00
  -343.3779      0.0000000E+00
   37.35016      0.0000000E+00
   1537.831      0.0000000E+00
  -698.4896      0.0000000E+00
   25.23902      0.0000000E+00
   395.9677      0.0000000E+00
   50.33346      0.0000000E+00
   71.64514      0.0000000E+00
  -4.416527      0.0000000E+00
   111.0331      0.0000000E+00
  -510.3953      0.0000000E+00
 -0.3218373      0.0000000E+00
  -684.5040      0.0000000E+00
  -4400.463      0.0000000E+00
