 Yearly Total Recharge Values for MODFLOW (m3)
 
 year:        1987
      0.0000      0.0000      0.0000      0.0000      0.0000      0.0000      0.0000      0.0000      0.0000      0.0000      0.0000      0.0000      0.0000      0.0000      0.0000      0.0000      0.0000      0.0000      0.0000      0.0000      0.0000      0.0000      0.0000      0.0000      0.0000      0.0000      0.0000      0.0000      0.0000      0.0000      0.0000      0.0000      0.0000      0.0000      0.0000      0.0000      0.0000      0.0000      0.0000      0.0000      0.0000      0.0000      0.0000      0.0000      0.0000      0.0000      0.0000      0.0000      0.0000      0.0000      0.0000      0.0000      0.0000      0.0000      0.0000      0.0000      0.0000      0.0000      0.0000      0.0000      0.0000      0.0000      0.0000      0.0000      0.0000      0.0000      0.0000      0.0000      0.0000      0.0000   2029.6144   9005.1387   7406.3950     46.4883      0.0000      0.0000
      0.0000      0.0000      0.0000      0.0000      0.0000      0.0000      0.0000      0.0000      0.0000      0.0000      0.0000      0.0000      0.0000      0.0000      0.0000      0.0000      0.0000      0.0000      0.0000      0.0000      0.0000      0.0000      0.0000      0.0000      0.0000      0.0000      0.0000      0.0000      0.0000      0.0000      0.0000      0.0000      0.0000      0.0000      0.0000      0.0000      0.0000      0.0000      0.0000      0.0000      0.0000      0.0000      0.0000      0.0000      0.0000      0.0000      0.0000      0.0000      0.0000      0.0000      0.0000      0.0000      0.0000      0.0000      0.0000      0.0000      0.0000      0.0000      0.0000      0.0000      0.0000      0.0000      0.0000      0.0000      0.0000      0.0000      0.0000      0.0000      0.0000   1876.5432  10361.2451  11338.6289  11338.6289   7823.6533   2533.0496      0.0000
      0.0000      0.0000      0.0000      0.0000      0.0000      0.0000      0.0000      0.0000      0.0000      0.0000      0.0000      0.0000      0.0000      0.0000      0.0000      0.0000      0.0000      0.0000      0.0000      0.0000      0.0000      0.0000      0.0000      0.0000      0.0000      0.0000      0.0000      0.0000      0.0000      0.0000      0.0000      0.0000      0.0000      0.0000      0.0000      0.0000      0.0000      0.0000      0.0000      0.0000      0.0000      0.0000      0.0000      0.0000      0.0000      0.0000      0.0000      0.0000      0.0000      0.0000      0.0000      0.0000      0.0000      0.0000      0.0000      0.0000      0.0000      0.0000      0.0000      0.0000      0.0000      0.0000      0.0000      0.0000      0.0000      0.0000      0.0000      0.0000   6718.1362  10665.1113  11338.6289  11338.6289  11338.6289  11338.6289  10974.6543    683.7192
      0.0000      0.0000      0.0000      0.0000      0.0000      0.0000      0.0000      0.0000      0.0000      0.0000      0.0000      0.0000      0.0000      0.0000      0.0000      0.0000      0.0000      0.0000      0.0000      0.0000      0.0000      0.0000      0.0000      0.0000      0.0000      0.0000      0.0000      0.0000      0.0000      0.0000      0.0000      0.0000      0.0000      0.0000      0.0000      0.0000      0.0000      0.0000      0.0000      0.0000      0.0000      0.0000      0.0000      0.0000      0.0000      0.0000      0.0000      0.0000      0.0000      0.0000      0.0000      0.0000      0.0000      0.0000      0.0000      0.0000      0.0000      0.0000      0.0000      0.0000      0.0000      0.0000      0.0000      0.0000      0.0000    641.5057    820.6567   3036.4849  11338.6289  11338.6289  11338.6289  11338.6289  11338.6289  11338.6289   6171.6147      0.0000
      0.0000      0.0000      0.0000      0.0000      0.0000      0.0000      0.0000      0.0000      0.0000      0.0000      0.0000      0.0000      0.0000      0.0000      0.0000      0.0000      0.0000      0.0000      0.0000      0.0000      0.0000      0.0000      0.0000      0.0000      0.0000      0.0000      0.0000      0.0000      0.0000      0.0000      0.0000      0.0000      0.0000      0.0000      0.0000      0.0000      0.0000      0.0000      0.0000      0.0000      0.0000      0.0000      0.0000      0.0000      0.0000      0.0000      0.0000      0.0000      0.0000      0.0000      0.0000      0.0000      0.0000      0.0000      0.0000      0.0000   1208.0245   1204.7010      0.0000      0.0000      0.0000      0.0000      0.0000    140.8477   1115.3212   3010.8853   2862.4956   8313.8672  11338.6289  11338.6289  11338.6289  11338.6289  11338.6289  11338.6289   5889.2817      0.0000
      0.0000      0.0000      0.0000      0.0000      0.0000      0.0000      0.0000      0.0000      0.0000      0.0000      0.0000      0.0000      0.0000      0.0000      0.0000      0.0000      0.0000      0.0000      0.0000      0.0000      0.0000      0.0000      0.0000      0.0000      0.0000      0.0000      0.0000      0.0000      0.0000      0.0000      0.0000      0.0000      0.0000      0.0000      0.0000      0.0000      0.0000      0.0000      0.0000      0.0000      0.0000      0.0000      0.0000      0.0000      0.0000      0.0000      0.0000      0.0000      0.0000      0.0000      0.0000      0.0000      0.0000      0.0000      0.0000   1890.9653   5375.4590   5295.7007   4496.4414   1106.6632    331.1580   2025.8550   1980.6146   2571.7534   3016.0120   3016.0120   3015.1072  10245.8662  11338.6289  11338.6289  11338.6289  11338.6289  11338.6289  11338.6289  10148.0703      0.0000
      0.0000      0.0000      0.0000      0.0000      0.0000      0.0000      0.0000      0.0000      0.0000      0.0000      0.0000      0.0000      0.0000      0.0000      0.0000      0.0000      0.0000      0.0000      0.0000      0.0000      0.0000      0.0000      0.0000      0.0000      0.0000      0.0000      0.0000      0.0000      0.0000      0.0000      0.0000      0.0000      0.0000      0.0000      0.0000      0.0000      0.0000      0.0000      0.0000      0.0000      0.0000      0.0000      0.0000      0.0000      0.0000      0.0000      0.0000      0.0000      0.0000      0.0000      0.0000      0.0000      0.0000      0.0000    278.0506   5457.4355   5538.8569   5538.8569   5538.8569   5115.1343   3365.0771   3016.0120   3016.0120   3016.0120   3016.0120   3016.0120   5903.1270  11338.6289  11338.6289  11338.6289  11338.6289  11338.6289  11338.6289  11338.6289  11124.3223   1377.6429
      0.0000      0.0000      0.0000      0.0000      0.0000      0.0000      0.0000      0.0000      0.0000      0.0000      0.0000      0.0000      0.0000      0.0000      0.0000      0.0000      0.0000      0.0000      0.0000      0.0000      0.0000      0.0000      0.0000      0.0000      0.0000      0.0000      0.0000      0.0000      0.0000      0.0000      0.0000      0.0000      0.0000      0.0000      0.0000      0.0000      0.0000      0.0000      0.0000      0.0000      0.0000      0.0000      0.0000      0.0000      0.0000      0.0000      0.0000      0.0000      0.0000      0.0000      0.0000      0.0000      0.0000   1359.2354   4734.6138   5538.8569   5538.8569   5538.8569   5538.8569   5538.8569   4162.6465   3016.0120   3016.0120   3016.0120   3016.0120   3016.0120   5903.1270  11338.6289  11338.6289  11338.6289  11338.6289  11338.6289  11338.6289  11338.6289  11331.8242   3245.1147
      0.0000      0.0000      0.0000      0.0000      0.0000      0.0000      0.0000      0.0000      0.0000      0.0000      0.0000      0.0000      0.0000      0.0000      0.0000      0.0000      0.0000      0.0000      0.0000      0.0000      0.0000      0.0000      0.0000      0.0000      0.0000      0.0000      0.0000      0.0000      0.0000      0.0000      0.0000      0.0000      0.0000      0.0000      0.0000      0.0000      0.0000      0.0000      0.0000      0.0000      0.0000      0.0000      0.0000      0.0000      0.0000      0.0000      0.0000      0.0000      0.0000      0.0000      0.0000      0.0000   1890.9653   5408.6914   5538.8569   5538.8569   5538.8569   5538.8569   5538.8569   5318.6133   3382.3291   3016.0120   3016.0120   3016.0120   3016.0120   3016.0120   8959.1934  11338.6289  11338.6289  11338.6289  11338.6289  11338.6289  11338.6289  11338.6289   5691.9917      0.0000
      0.0000      0.0000      0.0000      0.0000      0.0000      0.0000      0.0000      0.0000      0.0000      0.0000      0.0000      0.0000      0.0000      0.0000      0.0000      0.0000      0.0000      0.0000      0.0000      0.0000      0.0000      0.0000      0.0000      0.0000      0.0000      0.0000      0.0000      0.0000      0.0000      0.0000      0.0000      0.0000      0.0000      0.0000      0.0000      0.0000      0.0000      0.0000      0.0000      0.0000      0.0000      0.0000      0.0000      0.0000      0.0000      0.0000      0.0000      0.0000      0.0000      0.0000      0.0000      0.0000   2005.0658   5538.8569   5538.8569   5538.8569   5538.8569   5538.8569   5538.8569   4704.0454   3016.0120   3016.0120   3016.0120   3016.0120   3016.0120   6571.5015  11331.1416  11338.6289  11338.6289  11338.6289  11338.6289  11338.6289  11338.6289  10897.5566    452.4112      0.0000
      0.0000      0.0000      0.0000      0.0000      0.0000      0.0000      0.0000      0.0000      0.0000      0.0000      0.0000      0.0000      0.0000      0.0000      0.0000      0.0000      0.0000      0.0000      0.0000      0.0000      0.0000      0.0000      0.0000      0.0000      0.0000      0.0000      0.0000      0.0000      0.0000      0.0000      0.0000      0.0000      0.0000      0.0000      0.0000      0.0000      0.0000      0.0000      0.0000      0.0000      0.0000      0.0000      0.0000      0.0000      0.0000      0.0000      0.0000      0.0000      0.0000      0.0000      0.0000      0.0000   3580.3164   5538.8569   5538.8569   5538.8569   5538.8569   5538.8569   5538.8569   4151.5430   3016.0120   3016.0120   3016.0120   5576.6948  17072.4180  26315.2832  11748.1230  11338.6289  11338.6289  11338.6289  11338.6289  11338.6289  11338.6289  11259.2529   5063.8335      0.0000
      0.0000      0.0000      0.0000      0.0000      0.0000      0.0000      0.0000      0.0000      0.0000      0.0000      0.0000      0.0000      0.0000      0.0000      0.0000      0.0000      0.0000      0.0000      0.0000      0.0000      0.0000      0.0000      0.0000      0.0000      0.0000      0.0000      0.0000      0.0000      0.0000      0.0000      0.0000      0.0000      0.0000      0.0000      0.0000      0.0000      0.0000      0.0000      0.0000      0.0000      0.0000      0.0000      0.0000      0.0000      0.0000      0.0000      0.0000      0.0000      0.0000      0.0000      0.0000   7792.4248   5472.9419   5538.8569   5538.8569   5538.8569   5538.8569   5538.8569   5351.9141   3225.1550   3016.0120   3016.0120   3016.0120   3339.0269  28729.6484  29065.6895  26777.1309  15720.7588  11338.6289  11338.6289  11338.6289  11338.6289  11338.6289  11338.6289  10702.5264    489.8288
      0.0000      0.0000      0.0000      0.0000      0.0000      0.0000      0.0000      0.0000      0.0000      0.0000      0.0000      0.0000      0.0000      0.0000      0.0000      0.0000      0.0000      0.0000      0.0000      0.0000      0.0000      0.0000      0.0000      0.0000      0.0000      0.0000      0.0000      0.0000      0.0000      0.0000      0.0000      0.0000      0.0000      0.0000      0.0000      0.0000      0.0000      0.0000      0.0000      0.0000      0.0000      0.0000      0.0000      0.0000      0.0000      0.0000      0.0000      0.0000      0.0000  10118.1016  13519.9209  52055.7695  26401.3105   5852.8701  13963.3223   8639.7607   5538.8569   5538.8569   2615.6614   2408.5862   3016.0120   3016.0120   3016.0120  13256.1396  29065.6895  29065.6895  29065.6895  26291.4062  11338.6289  11338.6289  11338.6289  11338.6289  11338.6289  11338.6289  11338.6289   1605.5494
      0.0000      0.0000      0.0000      0.0000      0.0000      0.0000      0.0000      0.0000      0.0000      0.0000      0.0000      0.0000      0.0000      0.0000      0.0000      0.0000      0.0000      0.0000      0.0000      0.0000      0.0000      0.0000      0.0000      0.0000      0.0000      0.0000      0.0000      0.0000      0.0000      0.0000      0.0000      0.0000      0.0000      0.0000      0.0000      0.0000      0.0000      0.0000      0.0000      0.0000      0.0000      0.0000      0.0000      0.0000      0.0000      0.0000      0.0000   3882.3362  31610.1855  54074.2422  54603.8672  54603.8672  54603.8672  42107.0195  54603.8672  49064.4453  24698.7461   5519.5806    150.1030    433.4009   3009.6768   3016.0120   6129.7642  23024.7656  29065.6895  29065.6895  29065.6895  27144.0801  12924.4639  11338.6289  11338.6289  11338.6289  11338.6289  11338.6289   8818.0518      0.0000
      0.0000      0.0000      0.0000      0.0000      0.0000      0.0000      0.0000      0.0000      0.0000      0.0000      0.0000      0.0000      0.0000      0.0000      0.0000      0.0000      0.0000      0.0000      0.0000      0.0000      0.0000      0.0000      0.0000      0.0000      0.0000      0.0000      0.0000      0.0000      0.0000      0.0000      0.0000      0.0000      0.0000      0.0000      0.0000      0.0000      0.0000      0.0000      0.0000      0.0000      0.0000      0.0000      0.0000      0.0000      0.0000      0.0000      0.0000  12728.1660  54603.8672  54603.8672  54603.8672  54603.8672  54603.8672  54603.8672  54603.8672  54603.8672  54603.8672  36902.4258      0.0000      0.0000  17739.3262  34322.0742  46362.7969  29065.6895  29065.6895  29065.6895  29065.6895  28594.1133  13859.7441  12646.9219  11820.4404  11364.4355  11338.6289  11338.6289  11022.2773    132.6619
      0.0000      0.0000      0.0000      0.0000      0.0000      0.0000      0.0000      0.0000      0.0000      0.0000      0.0000      0.0000      0.0000      0.0000      0.0000      0.0000      0.0000      0.0000      0.0000      0.0000      0.0000      0.0000      0.0000      0.0000      0.0000      0.0000      0.0000      0.0000      0.0000      0.0000      0.0000      0.0000      0.0000      0.0000      0.0000      0.0000      0.0000      0.0000      0.0000      0.0000      0.0000      0.0000      0.0000      0.0000      0.0000      0.0000      0.0000  11368.5234  54505.5898  54603.8672  54603.8672  54603.8672  54603.8672  54603.8672  54603.8672  54603.8672  50590.4844  21279.1367      0.0000      0.0000  12141.3857  44230.2383  24994.4766  29065.6895  29065.6895  29065.6895  29065.6895  24106.1172  13025.6592  13025.6592  13025.6592  12229.5566  11338.6289  11338.6289   8331.6270      0.0000
      0.0000      0.0000      0.0000      0.0000      0.0000      0.0000      0.0000      0.0000      0.0000      0.0000      0.0000      0.0000      0.0000      0.0000      0.0000      0.0000      0.0000      0.0000      0.0000      0.0000      0.0000      0.0000      0.0000      0.0000      0.0000      0.0000      0.0000      0.0000      0.0000      0.0000      0.0000      0.0000      0.0000      0.0000      0.0000      0.0000      0.0000      0.0000      0.0000      0.0000      0.0000      0.0000      0.0000      0.0000      0.0000      0.0000   1725.4823  34132.8867  54603.8672  54603.8672  54603.8672  54603.8672  54603.8672  54603.8672  54603.8672  49241.7773  10462.1064      0.0000      0.0000      0.0000  60377.0781  62065.6133  22296.8262  29065.6895  29065.6895  29065.6895  29065.6895  25666.7988  13043.3057  13025.6592  13025.6592  12612.1729  11338.6289  11232.0459   4546.7920      0.0000
      0.0000      0.0000      0.0000      0.0000      0.0000      0.0000      0.0000      0.0000      0.0000      0.0000      0.0000      0.0000      0.0000      0.0000      0.0000      0.0000      0.0000      0.0000      0.0000      0.0000      0.0000      0.0000      0.0000      0.0000      0.0000      0.0000      0.0000      0.0000      0.0000      0.0000      0.0000      0.0000      0.0000      0.0000      0.0000      0.0000      0.0000      0.0000      0.0000      0.0000      0.0000      0.0000      0.0000    382.4403  27828.1562  21799.0996  36985.1484  54603.8672  54603.8672  54603.8672  54603.8672  54603.8672  54603.8672  54603.8672  53473.5977  12198.5107      0.0000      0.0000  18430.6562  93699.7266 143170.9688 145969.0312 122619.4375  60436.8594  29065.6895  29065.6895  29065.6895  27290.0684  13330.4209  13025.6592  13025.6592  12559.0293  11338.6289   6223.7705      0.0000      0.0000
      0.0000      0.0000      0.0000      0.0000      0.0000      0.0000      0.0000      0.0000      0.0000      0.0000      0.0000      0.0000      0.0000      0.0000      0.0000      0.0000      0.0000      0.0000      0.0000      0.0000      0.0000      0.0000      0.0000      0.0000      0.0000      0.0000      0.0000      0.0000      0.0000      0.0000      0.0000      0.0000      0.0000      0.0000      0.0000      0.0000      0.0000      0.0000      0.0000      0.0000      0.0000      0.0000      0.0000  24288.7012  74988.3203  74988.3203  66408.4922  54911.7070  54603.8672  54603.8672  58721.0938  67683.3906  63636.2969  67323.8047   9377.1064      0.0000      0.0000      0.0000 151158.1875 191387.8594 191387.8594 191387.8594 191387.8594 190413.9062 175512.7969  57715.5586  29065.6895  17066.1426  13025.6592  13025.6592  13025.6592  10179.3672   1564.7305     98.6461      0.0000      0.0000
      0.0000      0.0000      0.0000      0.0000      0.0000      0.0000      0.0000      0.0000      0.0000      0.0000      0.0000      0.0000      0.0000      0.0000      0.0000      0.0000      0.0000      0.0000      0.0000      0.0000      0.0000      0.0000      0.0000      0.0000      0.0000      0.0000      0.0000      0.0000      0.0000      0.0000      0.0000      0.0000      0.0000      0.0000      0.0000      0.0000      0.0000      0.0000      0.0000      0.0000      0.0000      0.0000      0.0000   3726.9182  74403.3594  74988.3203  74988.3203  60861.8906  54603.8672  56633.9766  92996.0938  98450.6172  97117.6797  97678.9375  68423.1953  22279.3711      0.0000  35406.7461 161397.2969 191387.8594 191387.8594 191387.8594 191387.8594 191387.8594 191387.8594 147563.7188  21271.8379  13210.1279  13025.6592  13025.6592  13025.6592   1474.5048      0.0000      0.0000      0.0000      0.0000
      0.0000      0.0000      0.0000      0.0000      0.0000      0.0000      0.0000      0.0000      0.0000      0.0000      0.0000      0.0000      0.0000      0.0000      0.0000      0.0000      0.0000      0.0000      0.0000      0.0000      0.0000      0.0000      0.0000      0.0000      0.0000      0.0000      0.0000      0.0000      0.0000      0.0000      0.0000      0.0000      0.0000      0.0000      0.0000      0.0000      0.0000      0.0000      0.0000      0.0000      0.0000      0.0000      0.0000  35784.4062  74988.3203  74988.3203  74988.3203  68915.7188  58194.9336  85156.3438  98450.6172  98450.6172  98450.6172  98450.6172  98450.6172  97840.2188  75672.2109 187399.9375 191387.8594 191387.8594 191387.8594 191387.8594 191387.8594 191387.8594 191387.8594 181863.3906  33412.4688  13025.6592  13025.6592  13025.6592  11962.7715    251.3953      0.0000      0.0000      0.0000      0.0000
      0.0000      0.0000      0.0000      0.0000      0.0000      0.0000      0.0000      0.0000      0.0000      0.0000      0.0000      0.0000      0.0000      0.0000      0.0000      0.0000      0.0000      0.0000      0.0000      0.0000      0.0000      0.0000      0.0000      0.0000      0.0000      0.0000      0.0000      0.0000      0.0000      0.0000      0.0000      0.0000      0.0000      0.0000      0.0000      0.0000      0.0000      0.0000      0.0000      0.0000      0.0000      0.0000  25091.0762  74943.2812  74988.3203  74988.3203  74988.3203  74969.9297  83010.0469  98150.3281  98450.6172  98450.6172  98450.6172  98450.6172  98450.6172  98450.6172  98450.6172 150904.4219 191387.8594 191387.8594 191387.8594 191387.8594 191387.8594 191387.8594 191387.8594 191387.8594  72313.2734  13025.6592  13025.6592  13025.6592   7329.5415      0.0000      0.0000      0.0000      0.0000      0.0000
      0.0000      0.0000      0.0000      0.0000      0.0000      0.0000      0.0000      0.0000      0.0000      0.0000      0.0000      0.0000      0.0000      0.0000      0.0000      0.0000      0.0000      0.0000      0.0000      0.0000      0.0000      0.0000      0.0000      0.0000      0.0000      0.0000      0.0000      0.0000      0.0000      0.0000      0.0000      0.0000      0.0000      0.0000      0.0000      0.0000      0.0000      0.0000      0.0000      0.0000      0.0000      0.0000  35124.5078  74988.3203  74988.3203  74988.3203  74988.3203  74988.3203  74965.8281  95855.6719  98450.6172  98450.6172  98450.6172  98450.6172  98450.6172  98450.6172  98450.6172 165486.3125 191387.8594 191387.8594 191387.8594 191387.8594 191387.8594 191387.8594 191387.8594 191387.8594 166409.3750  23384.6348  13186.5898  13184.6074   7569.0620      0.0000      0.0000      0.0000      0.0000      0.0000
      0.0000      0.0000      0.0000      0.0000      0.0000      0.0000      0.0000      0.0000      0.0000      0.0000      0.0000      0.0000      0.0000      0.0000      0.0000      0.0000      0.0000      0.0000      0.0000      0.0000      0.0000      0.0000      0.0000      0.0000      0.0000      0.0000      0.0000      0.0000      0.0000      0.0000      0.0000      0.0000      0.0000      0.0000      0.0000      0.0000      0.0000      0.0000     33.1689   3177.5796   3845.3774   2576.1162  41386.8906  74988.3203  74988.3203  74988.3203  74988.3203  74988.3203  74988.3203  93300.6328  98450.6172  98450.6172  98450.6172  98450.6172  98450.6172  98450.6172  98450.6172 121852.2969 191387.8594 191387.8594 191387.8594 191387.8594 191387.8594 191387.8594 191387.8594 178835.1719 144917.3281  33932.7617  31442.9668  25490.5938  22268.7637      0.0000      0.0000      0.0000      0.0000      0.0000
      0.0000      0.0000      0.0000      0.0000      0.0000      0.0000      0.0000      0.0000      0.0000      0.0000      0.0000      0.0000      0.0000      0.0000      0.0000      0.0000      0.0000      0.0000      0.0000      0.0000      0.0000      0.0000      0.0000      0.0000      0.0000      0.0000      0.0000      0.0000      0.0000      0.0000      0.0000      0.0000      0.0000      0.0000   1111.5262   5654.9258   3094.2874   5531.0952   6913.1333   7370.8623   7370.8623  21367.6621  74379.7344  74988.3203  74988.3203  74988.3203  74988.3203  74988.3203  75990.1250  94213.3047  98450.6172  98450.6172  98450.6172  98450.6172  98450.6172  98450.6172  98450.6172 132642.2344 191387.8594 191387.8594 191387.8594 191387.8594  99334.2031  66795.2812 115437.3281  37553.0469  32893.2891  32893.2891  32893.2891  32893.2891  25515.3203      0.0000      0.0000      0.0000      0.0000      0.0000
      0.0000      0.0000      0.0000      0.0000      0.0000      0.0000      0.0000      0.0000      0.0000      0.0000      0.0000      0.0000      0.0000      0.0000      0.0000      0.0000      0.0000      0.0000      0.0000      0.0000      0.0000      0.0000      0.0000      0.0000      0.0000      0.0000      0.0000      0.0000      0.0000      0.0000      0.0000      0.0000      0.0000      0.0000   4934.7896   7370.8623   7370.8623   7370.8623   7370.8623   7370.8623   7370.8623  34431.3477  74988.3203  74988.3203  74988.3203  74988.3203  74988.3203  74988.3203  81994.1094  98450.6172  98450.6172  98450.6172  98450.6172  98450.6172  98450.6172  98450.6172 103971.1328 183274.5000 191387.8594 143824.3125 121569.3125 125891.5547  31333.9844  32893.2891  32893.2891  32893.2891  32893.2891  32893.2891  32893.2891  32893.2891  32061.0918   7595.0610      0.0000      0.0000      0.0000      0.0000
      0.0000      0.0000      0.0000      0.0000      0.0000      0.0000      0.0000      0.0000      0.0000      0.0000      0.0000      0.0000      0.0000      0.0000      0.0000      0.0000      0.0000      0.0000      0.0000      0.0000      0.0000      0.0000      0.0000      0.0000      0.0000      0.0000      0.0000      0.0000      0.0000      0.0000      0.0000      0.0000      0.0000    939.7850   7272.0928   7370.8623   7370.8623   7370.8623   7370.8623   7370.8623   7370.8623  32159.4043  74988.3203  74988.3203  74988.3203  74988.3203  74988.3203  74988.3203  79593.9453  90412.4062  95543.6250  98450.6172  98450.6172  98450.6172  98450.6172  98450.6172  98450.6172 164231.6250 121551.0391   9581.6982   8521.0713   8521.0713  11972.1768  27848.2383  32893.2891  32893.2891  32893.2891  32893.2891  32893.2891  32893.2891  32893.2891  16522.2949      0.0000      0.0000      0.0000      0.0000
      0.0000      0.0000      0.0000      0.0000      0.0000      0.0000      0.0000      0.0000      0.0000      0.0000      0.0000      0.0000      0.0000      0.0000      0.0000      0.0000      0.0000      0.0000      0.0000      0.0000      0.0000      0.0000      0.0000      0.0000      0.0000      0.0000      0.0000      0.0000      0.0000      0.0000      0.0000      0.0000      0.0000   1962.1238   7370.8623   7370.8623   7370.8623   7370.8623   7370.8623   7370.8623   8063.2466  11660.0381  74916.4922  74988.3203  74988.3203  74988.3203  74988.3203  74988.3203  74988.3203  74988.3203  78155.6641  96620.5391  98450.6172  98450.6172  98450.6172  98450.6172  98450.6172 102709.9062  14171.6572   8521.0713   8521.0713   8521.0713   8521.0713  17743.5176  32893.2891  32893.2891  32893.2891  32893.2891  32893.2891  32893.2891  32893.2891  26459.3672      0.0000      0.0000      0.0000      0.0000
      0.0000      0.0000      0.0000      0.0000      0.0000      0.0000      0.0000      0.0000      0.0000      0.0000      0.0000      0.0000      0.0000      0.0000      0.0000      0.0000      0.0000      0.0000      0.0000      0.0000      0.0000      0.0000      0.0000      0.0000      0.0000      0.0000      0.0000      0.0000      0.0000      0.0000      0.0000      0.0000      0.0000    642.7393   7345.8003   7370.8623   7370.8623   7370.8623   7370.8623   9189.6455  14398.5342  15176.7900  54550.7188  74988.3203  74988.3203  74988.3203  74988.3203  74988.3203  74988.3203  74988.3203  74988.3203  86766.3906  98450.6172  98450.6172  98450.6172  98450.6172  98450.6172  46858.0352   8521.0713   8521.0713   8521.0713   8521.0713   8521.0713   8514.2588  25893.5898  32893.2891  32893.2891  32893.2891  32893.2891  32893.2891  28853.9961  11433.7070      0.0000      0.0000      0.0000      0.0000
      0.0000      0.0000      0.0000      0.0000      0.0000      0.0000      0.0000      0.0000      0.0000      0.0000      0.0000      0.0000      0.0000      0.0000      0.0000      0.0000      0.0000      0.0000      0.0000      0.0000      0.0000      0.0000      0.0000      0.0000      0.0000      0.0000      0.0000      0.0000      0.0000      0.0000      0.0000      0.0000      0.0000      0.0000   6624.1943   7370.8623   7370.8623   7370.8623   8705.6729  14706.0889  15176.7900  15176.7900  21032.3281  62930.3008  74898.5391  74988.3203  74988.3203  74988.3203  74988.3203  74988.3203  74988.3203  87322.3984  98450.6172  98450.6172  98450.6172  98450.6172  98450.6172  28188.6602   8521.0713   8521.0713   8521.0713   8521.0713   8521.0713   8630.7510  22052.5410  30443.8828  32893.2891  32834.0938  23331.2148  21209.5918   1200.6049      0.0000      0.0000      0.0000      0.0000      0.0000
      0.0000      0.0000      0.0000      0.0000      0.0000      0.0000      0.0000      0.0000      0.0000      0.0000      0.0000      0.0000      0.0000      0.0000      0.0000      0.0000      0.0000      0.0000      0.0000      0.0000      0.0000      0.0000      0.0000      0.0000      0.0000      0.0000      0.0000      0.0000      0.0000      0.0000      0.0000      0.0000      0.0000      0.0000   5845.8320   7370.8623   7370.8623   7370.8623  11691.4395  15176.7900  15176.7900  15176.7900  15176.7900  15176.7900  32294.8340  73373.3984  74988.3203  74988.3203  74988.3203  74988.3203  74988.3203  89729.6406  98450.6172  98450.6172  96580.0938  83252.4609  52577.5703  12163.2207   8521.0713   8521.0713   8521.0713   8521.0713   8521.0713   8521.0713   8521.0713  11767.4531  20168.5566  23858.0352   1632.4226      0.0000      0.0000      0.0000      0.0000      0.0000      0.0000      0.0000
      0.0000      0.0000      0.0000      0.0000      0.0000      0.0000      0.0000      0.0000      0.0000      0.0000      0.0000      0.0000      0.0000      0.0000      0.0000      0.0000      0.0000      0.0000      0.0000      0.0000      0.0000      0.0000      0.0000      0.0000      0.0000      0.0000      0.0000      0.0000      0.0000      0.0000      0.0000      0.0000      0.0000      0.0000   3653.7358   6874.0659   7370.8623   8177.2163  14189.3398  15176.7900  15176.7900  15176.7900  15176.7900  15176.7900  15176.7900  42214.7617  95074.1641  80488.3516  74988.3203  74988.3203  74988.3203  93234.9688  98450.6172  98450.6172  57811.4492  11003.1279   8521.0713   8521.0713   8521.0713   8521.0713   8521.0713   8521.0713   8521.0713   8521.0713   8521.0713   8521.0713   8521.0713   8521.0713   6731.6479    403.8990      0.0000      0.0000      0.0000      0.0000      0.0000      0.0000
      0.0000      0.0000      0.0000      0.0000      0.0000      0.0000      0.0000      0.0000      0.0000      0.0000      0.0000      0.0000      0.0000      0.0000      0.0000      0.0000      0.0000      0.0000      0.0000      0.0000      0.0000      0.0000      0.0000      0.0000      0.0000      0.0000      0.0000      0.0000      0.0000      0.0000      0.0000      0.0000      0.0000      0.0000      0.0000   1032.6580   5785.3887  12566.4873  15176.7900  15176.7900  15176.7900  15176.7900  15176.7900  15176.7900  15176.7900  21804.4648 177374.7344 152855.1406  74988.3203  74988.3203  74988.3203  95832.1719  98450.6172  98450.6172  96013.4766  17073.3711   8521.0713   8521.0713   8521.0713   8521.0713   8521.0713   8521.0713   8521.0713   8521.0713   8521.0713   8521.0713   8521.0713   7168.7817   2449.8093      0.0000      0.0000      0.0000      0.0000      0.0000      0.0000      0.0000
      0.0000      0.0000      0.0000      0.0000      0.0000      0.0000      0.0000      0.0000      0.0000      0.0000      0.0000      0.0000      0.0000      0.0000      0.0000      0.0000      0.0000      0.0000      0.0000      0.0000      0.0000      0.0000      0.0000      0.0000      0.0000      0.0000      0.0000      0.0000      0.0000      0.0000      0.0000      0.0000      0.0000      0.0000      0.0000      0.0000    867.8954  13201.5020  15176.7900  15176.7900  15176.7900  15176.7900  15176.7900  15176.7900  17527.1758 133797.3594 196177.8438 221864.1250  82554.6797  78040.7734  85316.3594  98366.1953  98450.6172  98450.6172  65608.3750   8521.0713   8521.0713   8521.0713   8521.0713   8521.0713   8521.0713   8521.0713   8521.0713   8521.0713   8521.0713   8521.0713   7221.6113   1170.7955      0.0000      0.0000      0.0000      0.0000      0.0000      0.0000      0.0000      0.0000
      0.0000      0.0000      0.0000      0.0000      0.0000      0.0000      0.0000      0.0000      0.0000      0.0000      0.0000      0.0000      0.0000      0.0000      0.0000      0.0000      0.0000      0.0000      0.0000      0.0000      0.0000      0.0000      0.0000      0.0000      0.0000      0.0000      0.0000      0.0000      0.0000      0.0000      0.0000      0.0000      0.0000      0.0000      0.0000      0.0000      0.0000   1476.7010   4660.7881   6969.1807  12976.1543  17448.9395  28946.0977  15167.6797  56658.0000 226923.5625 226923.5625 226923.5625 179586.0000  96012.8438  98450.6172  98450.6172  90965.2891  44834.1055  16174.3701   8685.5156   8521.0713   8521.0713   8521.0713   8521.0713   8521.0713   8521.0713   8521.0713   8521.0713   8521.0713   8521.0713   5529.3262      0.0000      0.0000      0.0000      0.0000      0.0000      0.0000      0.0000      0.0000      0.0000
      0.0000      0.0000      0.0000      0.0000      0.0000      0.0000      0.0000      0.0000      0.0000      0.0000      0.0000      0.0000      0.0000      0.0000      0.0000      0.0000      0.0000      0.0000      0.0000      0.0000      0.0000      0.0000      0.0000      0.0000      0.0000      0.0000      0.0000      0.0000      0.0000      0.0000      0.0000      0.0000      0.0000      0.0000      0.0000      0.0000      0.0000      0.0000      0.0000      0.0000  60143.8203 153687.7031 162458.3281 149188.9219 163800.4062 226555.6562 226923.5625 226923.5625 225985.7500 151792.5312  95707.5312  63381.5977  21087.2480   8805.9102   8805.9102   8798.8691   8325.7090   7995.0596   8518.4854   8521.0713   8438.1523   8469.2490   8521.0713   8521.0713   8521.0713   6596.1650    388.5609      0.0000      0.0000      0.0000      0.0000      0.0000      0.0000      0.0000      0.0000      0.0000
      0.0000      0.0000      0.0000      0.0000      0.0000      0.0000      0.0000      0.0000      0.0000      0.0000      0.0000      0.0000      0.0000      0.0000      0.0000      0.0000      0.0000      0.0000      0.0000      0.0000      0.0000      0.0000      0.0000      0.0000      0.0000      0.0000      0.0000      0.0000      0.0000      0.0000      0.0000      0.0000      0.0000      0.0000      0.0000      0.0000      0.0000      0.0000      0.0000      0.0000 124523.9453 166654.1719 166654.1719 166654.1719 175729.0938 223519.2344 224306.7969 225229.6875 226923.5625 221555.5156  60572.0508   8805.9102   8805.9102   8805.9102   8805.9102   8805.9102   7465.6660   5641.9600   6372.6768   7396.2070   6289.7593   6180.0635   6878.8262   8035.3687   7691.6021   3423.5417      0.0000      0.0000      0.0000      0.0000      0.0000      0.0000      0.0000      0.0000      0.0000      0.0000
      0.0000      0.0000      0.0000      0.0000      0.0000      0.0000      0.0000      0.0000      0.0000      0.0000      0.0000      0.0000      0.0000      0.0000      0.0000      0.0000      0.0000      0.0000      0.0000      0.0000      0.0000      0.0000      0.0000      0.0000      0.0000      0.0000      0.0000      0.0000      0.0000      0.0000      0.0000      0.0000      0.0000      0.0000      0.0000      0.0000      0.0000      0.0000      0.0000      0.0000   9915.9268 141372.7812 166654.1719 166654.1719 166654.1719 199489.3906 222917.4531 223948.6406 205602.0781 127008.9219   8805.9102   8805.9102   8805.9102   8805.9102   8805.9102   8805.9102   7899.4434   5641.9600   5641.9600   5641.9600   5641.9600   5641.9600   5641.9600   5641.9600   5641.9600   3458.5203      0.0000      0.0000      0.0000      0.0000      0.0000      0.0000      0.0000      0.0000      0.0000      0.0000
      0.0000      0.0000      0.0000      0.0000      0.0000      0.0000      0.0000      0.0000      0.0000      0.0000      0.0000      0.0000      0.0000      0.0000      0.0000      0.0000      0.0000      0.0000      0.0000      0.0000      0.0000      0.0000      0.0000      0.0000      0.0000      0.0000      0.0000      0.0000      0.0000      0.0000      0.0000      0.0000      0.0000      0.0000      0.0000      0.0000      0.0000      0.0000      0.0000      0.0000      0.0000      0.0000  66711.7188 114258.1484 166604.1562 169444.8750 201396.7188 216148.8906 222895.0312 129799.4844   8805.9102   8805.9102   8805.9102   8805.9102   8805.9102   8805.9102   8045.6196   5641.9600   5641.9600   5641.9600   5641.9600   5641.9600   5641.9600   5641.9600   5641.9600   2275.4016      0.0000      0.0000      0.0000      0.0000      0.0000      0.0000      0.0000      0.0000      0.0000      0.0000
      0.0000      0.0000      0.0000      0.0000      0.0000      0.0000      0.0000      0.0000      0.0000      0.0000      0.0000      0.0000      0.0000      0.0000      0.0000      0.0000      0.0000      0.0000      0.0000      0.0000      0.0000      0.0000      0.0000      0.0000      0.0000      0.0000      0.0000      0.0000      0.0000      0.0000      0.0000      0.0000      0.0000      0.0000      0.0000      0.0000      0.0000      0.0000      0.0000      0.0000      0.0000      0.0000      0.0000  38730.4531 166654.1719 166654.1719 166654.1719 190689.7344 222917.4531 220540.5938 153416.6094 163308.6719 162794.8594 116803.6875  77043.2422  61306.0586  25420.7949   6554.5156   5641.9600   5641.9600   5641.9600   5641.9600   5641.9600   5641.9600   4296.9150    436.6874      0.0000      0.0000      0.0000      0.0000      0.0000      0.0000      0.0000      0.0000      0.0000      0.0000
      0.0000      0.0000      0.0000      0.0000      0.0000      0.0000      0.0000      0.0000      0.0000      0.0000      0.0000      0.0000      0.0000      0.0000      0.0000      0.0000      0.0000      0.0000      0.0000      0.0000      0.0000      0.0000      0.0000      0.0000      0.0000      0.0000      0.0000      0.0000      0.0000      0.0000      0.0000      0.0000      0.0000      0.0000      0.0000      0.0000      0.0000      0.0000      0.0000      0.0000      0.0000      0.0000      0.0000  35230.7266 166654.1719 166654.1719 166654.1719 209493.0312 222917.4531 222917.4531 222917.4531 222917.4531 222917.4531 222917.4531 222917.4531 222917.4531 222917.4531  52783.5469   5641.9600   5641.9600   6095.3906   7520.0820   8043.2754   8799.7646    291.6893      0.0000      0.0000      0.0000      0.0000      0.0000      0.0000      0.0000      0.0000      0.0000      0.0000      0.0000
      0.0000      0.0000      0.0000      0.0000      0.0000      0.0000      0.0000      0.0000      0.0000      0.0000      0.0000      0.0000      0.0000      0.0000      0.0000      0.0000      0.0000      0.0000      0.0000      0.0000      0.0000      0.0000      0.0000      0.0000      0.0000      0.0000      0.0000      0.0000      0.0000      0.0000      0.0000      0.0000      0.0000      0.0000      0.0000      0.0000      0.0000      0.0000      0.0000      0.0000      0.0000      0.0000      0.0000  79277.4531 166654.1719 166654.1719 166654.1719 209104.6250 222917.4531 222917.4531 222917.4531 222917.4531 222917.4531 222917.4531 222917.4531 222917.4531 184798.4062   1217.6780   6418.3159   9231.8584  17580.1328  19057.1367  19057.1367  18820.8262   1983.8483      0.0000      0.0000      0.0000      0.0000      0.0000      0.0000      0.0000      0.0000      0.0000      0.0000      0.0000
      0.0000      0.0000      0.0000      0.0000      0.0000      0.0000      0.0000      0.0000      0.0000      0.0000      0.0000      0.0000      0.0000      0.0000      0.0000      0.0000      0.0000      0.0000      0.0000      0.0000      0.0000      0.0000      0.0000      0.0000      0.0000      0.0000      0.0000  13647.0342   8047.8047      0.0000      0.0000      0.0000      0.0000      0.0000      0.0000      0.0000      0.0000      0.0000     66.0261   1672.6621      0.0000      0.0000  53612.6719 164804.3594 166654.1719 166654.1719 166654.1719 203450.3438 222917.4531 222917.4531 222917.4531 222917.4531 222917.4531 222917.4531 222917.4531 217589.5312  47949.5195   2237.3071  18228.1523  18996.7598  19057.1367  19057.1367  19057.1367  19057.1367  18542.5938   7925.8633     34.3028      0.0000      0.0000      0.0000      0.0000      0.0000      0.0000      0.0000      0.0000      0.0000
      0.0000      0.0000      0.0000      0.0000      0.0000      0.0000      0.0000      0.0000      0.0000      0.0000      0.0000      0.0000      0.0000      0.0000      0.0000      0.0000      0.0000      0.0000      0.0000      0.0000      0.0000      0.0000      0.0000      0.0000      0.0000      0.0000  49181.9922  84629.2031  84146.4844   9706.5059      0.0000      0.0000      0.0000      0.0000      0.0000      0.0000      0.0000   2577.4648  16819.5469  13439.9844      0.0000      0.0000   7782.7466 116391.3906 166654.1719 166654.1719 182610.4844 221100.0781 222917.4531 222917.4531 222917.4531 220509.7812 221891.9062 220331.4688 159140.6406  55194.3125      0.0000   8571.9014  19057.1367  19057.1367  19057.1367  19057.1367  19057.1367  19057.1367  19057.1367  19057.1367   2870.0051      0.0000      0.0000      0.0000      0.0000      0.0000      0.0000      0.0000      0.0000      0.0000
      0.0000      0.0000      0.0000      0.0000      0.0000      0.0000      0.0000      0.0000      0.0000      0.0000      0.0000      0.0000      0.0000      0.0000      0.0000      0.0000      0.0000      0.0000      0.0000      0.0000      0.0000      0.0000      0.0000      0.0000      0.0000  12585.1074  87200.6172  87762.2422  87762.2422  68910.9531  29830.4160  11452.9746   9504.6543      0.0000      0.0000    264.1045   1437.9028  21573.4277  22825.4844   2912.4863      0.0000      0.0000   7849.4126 147172.3594 166654.1719 166654.1719 190295.9062 222917.4531 222917.4531 196568.5938  72113.7734  24699.2441  14155.2480  27017.5820      0.0000      0.0000      0.0000  10607.2021  19057.1367  19057.1367  19057.1367  19057.1367  19057.1367  19057.1367  19057.1367  19057.1367   5105.4092      0.0000      0.0000      0.0000      0.0000      0.0000      0.0000      0.0000      0.0000      0.0000
      0.0000      0.0000      0.0000      0.0000      0.0000      0.0000      0.0000      0.0000      0.0000      0.0000      0.0000      0.0000      0.0000      0.0000      0.0000      0.0000      0.0000      0.0000      0.0000      0.0000      0.0000      0.0000      0.0000      0.0000      0.0000  44513.0273  87762.2422  87762.2422  87762.2422  87762.2422  87762.2422  87604.3516  69516.5391  11979.5576      0.0000  14995.2734  23265.6523  24454.1172  10595.9727      0.0000      0.0000      0.0000  97409.4609 166654.1719 166654.1719 166654.1719 181524.5938 219654.1094 222917.4531 103099.2969      0.0000      0.0000      0.0000      0.0000      0.0000      0.0000     22.8686  15884.1240  19057.1367  19057.1367  19057.1367  19057.1367  19057.1367  19057.1367  19057.1367  19057.1367  18982.8105   9048.3281      0.0000      0.0000      0.0000      0.0000      0.0000      0.0000      0.0000      0.0000
      0.0000      0.0000      0.0000      0.0000      0.0000      0.0000      0.0000      0.0000      0.0000      0.0000      0.0000      0.0000      0.0000      0.0000      0.0000      0.0000      0.0000      0.0000      0.0000      0.0000      0.0000      0.0000      0.0000      0.0000      0.0000  55702.7305  87762.2422  87762.2422  87762.2422  87762.2422  87762.2422  87762.2422  87762.2422  82979.2891  53678.4648  23765.3262  24454.1172  24268.2754   2726.6345      0.0000      0.0000      0.0000 136656.4531 166654.1719 166654.1719 166654.1719 161537.9688 107849.8750 169171.8750  32858.0156      0.0000      0.0000      0.0000      0.0000      0.0000      0.0000   6111.6235  19057.1367  19057.1367  19057.1367  19057.1367  19057.1367  19057.1367  19057.1367  19057.1367  16798.8652  13724.9502   6027.7734      0.0000      0.0000      0.0000      0.0000      0.0000      0.0000      0.0000      0.0000
      0.0000      0.0000      0.0000      0.0000      0.0000      0.0000      0.0000      0.0000      0.0000      0.0000      0.0000      0.0000      0.0000      0.0000      0.0000      0.0000      0.0000      0.0000      0.0000      0.0000      0.0000      0.0000      0.0000      0.0000      0.0000  69814.8906  87762.2422  87762.2422  87762.2422  87762.2422  87762.2422  87762.2422  87762.2422  87762.2422  84786.8281  24511.0918  24454.1172  24331.8555   1804.7145      0.0000      0.0000   8560.9033 111458.2344 166654.1719 166654.1719 166654.1719 114424.8594      0.0000      0.0000      0.0000      0.0000      0.0000      0.0000      0.0000      0.0000      0.0000  14155.6387  19057.1367  19057.1367  19057.1367  19057.1367  19057.1367  19057.1367  19057.1367  13311.4082    459.2771      0.0000      0.0000      0.0000      0.0000      0.0000      0.0000      0.0000      0.0000      0.0000      0.0000
      0.0000      0.0000      0.0000      0.0000      0.0000      0.0000      0.0000      0.0000      0.0000      0.0000      0.0000      0.0000      0.0000      0.0000      0.0000      0.0000      0.0000      0.0000      0.0000      0.0000      0.0000      0.0000      0.0000      0.0000      0.0000  65339.0508  87762.2422  87762.2422  87762.2422  87762.2422  87762.2422  87762.2422  87762.2422  87617.6094  64596.6211  24454.1172  24454.1172  18213.4395      0.0000      0.0000  29710.3457  79061.8906 109529.2266 166654.1719 166654.1719 166654.1719  56479.1211      0.0000      0.0000      0.0000      0.0000      0.0000      0.0000      0.0000      0.0000   4394.5737  18994.2480  19057.1367  19057.1367  19057.1367  19057.1367  19057.1367  19057.1367  14904.5869   1406.4164      0.0000      0.0000      0.0000      0.0000      0.0000      0.0000      0.0000      0.0000      0.0000      0.0000      0.0000
      0.0000      0.0000      0.0000      0.0000      0.0000      0.0000      0.0000      0.0000      0.0000      0.0000      0.0000      0.0000      0.0000      0.0000      0.0000      0.0000      0.0000      0.0000      0.0000      0.0000      0.0000      0.0000      0.0000      0.0000   1948.3246  85822.7500  87762.2422  87762.2422  87762.2422  87762.2422  87762.2422  87593.3672  86347.6328  85919.8359  64523.8438  56415.5625  52263.4727  50565.3477  64482.7266  78736.2344  84169.3594  85694.6797  86625.7266 161262.3125 166654.1719 160571.4062  39663.7070      0.0000      0.0000      0.0000      0.0000      0.0000      0.0000      0.0000   4880.5337  16299.5654  19057.1367  19057.1367  19057.1367  19057.1367  19057.1367  19057.1367  19057.1367  10336.5918      0.0000      0.0000      0.0000      0.0000      0.0000      0.0000      0.0000      0.0000      0.0000      0.0000      0.0000      0.0000
      0.0000      0.0000      0.0000      0.0000      0.0000      0.0000      0.0000      0.0000      0.0000      0.0000      0.0000      0.0000      0.0000      0.0000      0.0000      0.0000      0.0000      0.0000      0.0000      0.0000      0.0000      0.0000      0.0000      0.0000   1632.3784  78792.9688  87762.2422  87762.2422  87762.2422  87762.2422  87021.6719  86054.2812  85694.6797  85694.6797  85694.6797  85694.6797  85694.6797  85694.6797  85694.6797  85694.6797  85694.6797  85694.6797 119535.8203 166654.1719 166654.1719 152738.5312   9899.2646      0.0000      0.0000      0.0000      0.0000      0.0000      0.0000      0.0000  12728.2607  19057.1367  19057.1367  19057.1367  19057.1367  19057.1367  19057.1367  19057.1367  17616.4160   2338.3108      0.0000      0.0000      0.0000      0.0000      0.0000      0.0000      0.0000      0.0000      0.0000      0.0000      0.0000      0.0000
      0.0000      0.0000      0.0000      0.0000      0.0000      0.0000      0.0000      0.0000      0.0000      0.0000      0.0000      0.0000      0.0000      0.0000      0.0000      0.0000      0.0000      0.0000      0.0000      0.0000      0.0000      0.0000      0.0000      0.0000      0.0000   6661.1582  46812.3906  87762.2422  86954.8750  71744.9766  85752.3984  85694.6797  85694.6797  85694.6797  85694.6797  85694.6797  85694.6797  85694.6797  85694.6797  85694.6797  85694.6797  85694.6797 149652.7344 166654.1719 166654.1719 132390.1562      0.0000      0.0000      0.0000      0.0000      0.0000      0.0000      0.0000   4653.7554  18559.7383  19057.1367  19057.1367  19057.1367  19057.1367  19057.1367  19057.1367  19057.1367  13174.2031      0.0000      0.0000      0.0000      0.0000      0.0000      0.0000      0.0000      0.0000      0.0000      0.0000      0.0000      0.0000      0.0000
      0.0000      0.0000      0.0000      0.0000      0.0000      0.0000      0.0000      0.0000      0.0000      0.0000      0.0000      0.0000      0.0000      0.0000      0.0000      0.0000      0.0000      0.0000      0.0000      0.0000      0.0000      0.0000      0.0000      0.0000      0.0000      0.0000    315.9443  27162.4316  13199.4473    231.3757  25776.9629  85557.6016  85694.6797  85694.6797  85694.6797  85694.6797  85694.6797  85694.6797  85694.6797  85694.6797  85694.6797  85694.6797 104897.1250 119753.6250 120678.6172 104854.9531      0.0000      0.0000      0.0000      0.0000      0.0000      0.0000   5976.3198  16349.1162  19057.1367  19057.1367  19057.1367  19057.1367  19057.1367  19057.1367  19057.1367  14087.0342     60.9828      0.0000      0.0000      0.0000      0.0000      0.0000      0.0000      0.0000      0.0000      0.0000      0.0000      0.0000      0.0000      0.0000
      0.0000      0.0000      0.0000      0.0000      0.0000      0.0000      0.0000      0.0000      0.0000      0.0000      0.0000      0.0000      0.0000      0.0000      0.0000      0.0000      0.0000      0.0000      0.0000      0.0000      0.0000      0.0000      0.0000      0.0000      0.0000      0.0000      0.0000      0.0000      0.0000      0.0000      0.0000  12665.6797  63071.2578  85694.6797  85694.6797  85694.6797  85694.6797  85694.6797  85694.6797  85694.6797  85694.6797  85694.6797  94410.0625 106191.8594 106191.8594  98662.3672  36126.4570      0.0000      0.0000      0.0000      0.0000      0.0000  13084.6270  19057.1367  19057.1367  19057.1367  19057.1367  19057.1367  19057.1367  19057.1367  16861.7617   2084.8508      0.0000      0.0000      0.0000      0.0000      0.0000      0.0000      0.0000      0.0000      0.0000      0.0000      0.0000      0.0000      0.0000      0.0000
      0.0000      0.0000      0.0000      0.0000      0.0000      0.0000      0.0000      0.0000      0.0000      0.0000      0.0000      0.0000      0.0000      0.0000      0.0000      0.0000      0.0000      0.0000      0.0000      0.0000      0.0000      0.0000      0.0000      0.0000      0.0000      0.0000      0.0000      0.0000      0.0000      0.0000      0.0000      0.0000  30387.3379  85206.2422  85694.6797  85694.6797  85694.6797  85694.6797  85694.6797  85694.6797  85694.6797  85694.6797  96771.3594 106191.8594 106191.8594  59159.4766      0.0000      0.0000      0.0000      0.0000      0.0000      0.0000  14519.6318  19057.1367  19057.1367  19057.1367  19057.1367  19057.1367  19057.1367  19057.1367  13178.0088      0.0000      0.0000      0.0000      0.0000      0.0000      0.0000      0.0000      0.0000      0.0000      0.0000      0.0000      0.0000      0.0000      0.0000      0.0000
      0.0000      0.0000      0.0000      0.0000      0.0000      0.0000      0.0000      0.0000      0.0000      0.0000      0.0000      0.0000      0.0000      0.0000      0.0000      0.0000      0.0000      0.0000      0.0000      0.0000      0.0000      0.0000      0.0000      0.0000      0.0000      0.0000      0.0000      0.0000      0.0000      0.0000      0.0000      0.0000      0.0000  41424.8242  85694.6797  85694.6797  85694.6797  85694.6797  85694.6797  85694.6797  85694.6797  49034.5039  15656.9473  72380.3672 104821.9297  18923.3867      0.0000      0.0000      0.0000      0.0000      0.0000      0.0000   8099.2837  19057.1367  19057.1367  19057.1367  19057.1367  19057.1367  19057.1367  19057.1367  19007.5840   7559.9663      0.0000      0.0000      0.0000      0.0000      0.0000      0.0000      0.0000      0.0000      0.0000      0.0000      0.0000      0.0000      0.0000      0.0000
      0.0000      0.0000      0.0000      0.0000      0.0000      0.0000      0.0000      0.0000      0.0000      0.0000      0.0000      0.0000      0.0000      0.0000      0.0000      0.0000      0.0000      0.0000      0.0000      0.0000      0.0000      0.0000      0.0000      0.0000   1198.4991  11714.6025  13526.9717   1008.4938      0.0000      0.0000      0.0000      0.0000      0.0000   2579.4097  68366.7734  81489.6719  85694.6797  84482.1016  79844.4688  69864.7422  36103.1641   1551.0734      0.0000  20091.4941  81374.7656      0.0000      0.0000      0.0000      0.0000      0.0000      0.0000      0.0000   7939.2046  19057.1367  19057.1367  19057.1367  19057.1367  19057.1367  19057.1367  19057.1367  18805.5859   6349.8379      0.0000      0.0000      0.0000      0.0000      0.0000      0.0000      0.0000      0.0000      0.0000      0.0000      0.0000      0.0000      0.0000      0.0000
      0.0000      0.0000      0.0000      0.0000      0.0000      0.0000      0.0000      0.0000      0.0000      0.0000      0.0000      0.0000      0.0000      0.0000      0.0000      0.0000      0.0000      0.0000      0.0000      0.0000      0.0000      0.0000      0.0000      0.0000  15517.1621  24359.7520  24359.7520  12564.7578    158.3384      0.0000      0.0000      0.0000      0.0000      0.0000  48845.3906  64057.1445  68311.8281  63014.7344  62057.4180  46176.9258  13913.2725   2445.0615      0.0000   9875.8457  21567.5645      0.0000      0.0000      0.0000      0.0000      0.0000      0.0000     70.5114  13677.3066  19057.1367  19057.1367  19057.1367  19057.1367  19057.1367  19057.1367  19057.1367  10713.9238      0.0000      0.0000      0.0000      0.0000      0.0000      0.0000      0.0000      0.0000      0.0000      0.0000      0.0000      0.0000      0.0000      0.0000      0.0000
      0.0000      0.0000      0.0000      0.0000      0.0000      0.0000      0.0000      0.0000      0.0000      0.0000      0.0000      0.0000      0.0000      0.0000      0.0000      0.0000      0.0000      0.0000      0.0000      0.0000      0.0000      0.0000      0.0000   2455.4636  16540.2676  24359.7520  24359.7520  24359.7520  15161.5127      0.0000      0.0000      0.0000      0.0000      0.0000  55063.5547  62057.4180  62057.4180  62057.4180  62057.4180  62057.4180  62057.4180  50645.0625  16544.5078  24121.7363  14924.8125  11852.9766   5628.6108      0.0000      0.0000      0.0000      0.0000   8417.5371  19057.1367  19057.1367  19057.1367  19057.1367  19057.1367  19057.1367  19057.1367  18119.5215   2458.3711      0.0000      0.0000      0.0000      0.0000      0.0000      0.0000      0.0000      0.0000      0.0000      0.0000      0.0000      0.0000      0.0000      0.0000      0.0000
      0.0000      0.0000      0.0000      0.0000      0.0000      0.0000      0.0000      0.0000      0.0000      0.0000      0.0000      0.0000      0.0000      0.0000      0.0000      0.0000      0.0000      0.0000      0.0000      0.0000      0.0000      0.0000      0.0000  10172.6348  24359.7520  24359.7520  24359.7520  24359.7520  24311.0332   3442.0342      0.0000      0.0000      0.0000      0.0000  51731.0586  62057.4180  62057.4180  62057.4180  62057.4180  62057.4180  62057.4180  62057.4180  62020.1758  62057.4180  62057.4180  62057.4180  60872.1680  44569.6289  40417.9922  33455.1562  11935.7422  18799.8750  19057.1367  19057.1367  19057.1367  19057.1367  19057.1367  19057.1367  19057.1367   5313.1313      0.0000      0.0000      0.0000      0.0000      0.0000      0.0000      0.0000      0.0000      0.0000      0.0000      0.0000      0.0000      0.0000      0.0000      0.0000      0.0000
      0.0000      0.0000      0.0000      0.0000      0.0000      0.0000      0.0000      0.0000      0.0000      0.0000      0.0000      0.0000      0.0000      0.0000      0.0000      0.0000      0.0000      0.0000      0.0000      0.0000      0.0000      0.0000      0.0000   7476.0063  24359.7520  24359.7520  24359.7520  24359.7520  24359.7520  13522.0967      0.0000      0.0000      0.0000      0.0000  25629.7148  62057.4180  62057.4180  62057.4180  62057.4180  62057.4180  62057.4180  62057.4180  62057.4180  62057.4180  62057.4180  62057.4180  62057.4180  62057.4180  62057.4180  61623.1211  26552.0859  19057.1367  19057.1367  19057.1367  19057.1367  19057.1367  19057.1367  19057.1367  18188.1289    459.2771      0.0000      0.0000      0.0000      0.0000      0.0000      0.0000      0.0000      0.0000      0.0000      0.0000      0.0000      0.0000      0.0000      0.0000      0.0000      0.0000
      0.0000      0.0000      0.0000      0.0000      0.0000      0.0000      0.0000      0.0000      0.0000      0.0000      0.0000      0.0000      0.0000      0.0000      0.0000      0.0000      0.0000      0.0000      0.0000      0.0000      0.0000      0.0000      0.0000   9456.4561  24359.7520  24359.7520  24359.7520  24359.7520  24359.7520  19302.6699    336.1646      0.0000      0.0000      0.0000   2277.5068  40020.8398  62057.4180  62057.4180  62057.4180  62057.4180  62057.4180  62057.4180  62057.4180  62057.4180  62057.4180  62057.4180  60006.3242  61154.4375  38364.2578  21009.3359  19057.1367  19057.1367  19057.1367  19057.1367  19057.1367  19057.1367  19057.1367  19057.1367  19057.1367   3620.8557      0.0000      0.0000      0.0000      0.0000      0.0000      0.0000      0.0000      0.0000      0.0000      0.0000      0.0000      0.0000      0.0000      0.0000      0.0000      0.0000
      0.0000      0.0000      0.0000      0.0000      0.0000      0.0000      0.0000      0.0000      0.0000      0.0000      0.0000      0.0000      0.0000      0.0000      0.0000      0.0000      0.0000      0.0000      0.0000      0.0000      0.0000      0.0000      0.0000  17816.7227  24359.7520  24359.7520  24359.7520  24359.7520  24359.7520  24359.7520  23034.5898  10260.3281      0.0000      0.0000      0.0000      0.0000  43291.2656  62057.4180  62057.4180  62057.4180  62057.4180  62057.4180  62057.4180  62057.4180  62057.4180  55400.9688  22170.3613  24827.7793  19057.1367  19057.1367  19057.1367  19057.1367  19057.1367  19057.1367  19057.1367  19057.1367  19057.1367  19057.1367  16775.9980     36.2086      0.0000      0.0000      0.0000      0.0000      0.0000      0.0000      0.0000      0.0000      0.0000      0.0000      0.0000      0.0000      0.0000      0.0000      0.0000      0.0000
      0.0000      0.0000      0.0000      0.0000      0.0000      0.0000      0.0000      0.0000      0.0000      0.0000      0.0000      0.0000      0.0000      0.0000      0.0000      0.0000      0.0000      0.0000      0.0000      0.0000      0.0000      0.0000   6391.9990  24272.0625  24359.7520  24359.7520  24359.7520  24359.7520  24359.7520  24359.7520  24359.7520  16250.3926      0.0000      0.0000      0.0000      0.0000  34857.6562  62057.4180  62057.4180  62057.4180  62057.4180  62057.4180  62057.4180  62057.4180  62020.1758  32034.6250  19057.1367  19057.1367  19057.1367  19057.1367  19057.1367  19057.1367  19057.1367  19057.1367  19057.1367  19057.1367  19057.1367  14458.6484   5562.7764      0.0000      0.0000      0.0000      0.0000      0.0000      0.0000      0.0000      0.0000      0.0000      0.0000      0.0000      0.0000      0.0000      0.0000      0.0000      0.0000      0.0000
      0.0000      0.0000      0.0000      0.0000      0.0000      0.0000      0.0000      0.0000      0.0000      0.0000      0.0000      0.0000      0.0000      0.0000      0.0000      0.0000      0.0000      0.0000      0.0000      0.0000      0.0000      0.0000  11390.6230  24359.7520  24359.7520  24359.7520  24359.7520  24359.7520  24359.7520  24359.7520  24359.7520  23882.3047   7071.6377      0.0000      0.0000      0.0000  12057.7607  61697.4844  62057.4180  62057.4180  62057.4180  62057.4180  62057.4180  59782.7148  27592.7012  19045.6992  19057.1367  19057.1367  19057.1367  19057.1367  19057.1367  19057.1367  19057.1367  19057.1367  19057.1367  19057.1367  16553.0371   2995.7822      0.0000      0.0000      0.0000      0.0000      0.0000      0.0000      0.0000      0.0000      0.0000      0.0000      0.0000      0.0000      0.0000      0.0000      0.0000      0.0000      0.0000      0.0000
      0.0000      0.0000      0.0000      0.0000      0.0000      0.0000      0.0000      0.0000      0.0000      0.0000      0.0000      0.0000      0.0000      0.0000      0.0000      0.0000      0.0000      0.0000      0.0000      0.0000      0.0000      0.0000   5712.3613  24359.7520  24359.7520  24359.7520  24359.7520  24359.7520  24359.7520  24359.7520  24359.7520  24359.7520  12922.8486      0.0000      0.0000      0.0000   2736.7324  59922.6445  62057.4180  62057.4180  62057.4180  62057.4180  59670.9062  28960.0977  19057.1367  19057.1367  19057.1367  19057.1367  19057.1367  19057.1367  19057.1367  19057.1367  19057.1367  19057.1367  19057.1367  17210.4980   2877.6272      0.0000      0.0000      0.0000      0.0000      0.0000      0.0000      0.0000      0.0000      0.0000      0.0000      0.0000      0.0000      0.0000      0.0000      0.0000      0.0000      0.0000      0.0000      0.0000
      0.0000      0.0000      0.0000      0.0000      0.0000      0.0000      0.0000      0.0000      0.0000      0.0000      0.0000      0.0000      0.0000      0.0000      0.0000      0.0000      0.0000      0.0000      0.0000      0.0000      0.0000      0.0000    811.1796  23356.1367  24359.7520  24359.7520  24359.7520  24359.7520  24359.7520  24359.7520  24359.7520  24359.7520  12689.0020      0.0000      0.0000      0.0000   7211.0752  61834.0234  62057.4180  62057.4180  62057.4180  62057.4180  60741.6211  22742.2578  19057.1367  19057.1367  19057.1367  19057.1367  19057.1367  19057.1367  19057.1367  19057.1367  19057.1367  19057.1367  19057.1367  12478.6094      0.0000      0.0000      0.0000      0.0000      0.0000      0.0000      0.0000      0.0000      0.0000      0.0000      0.0000      0.0000      0.0000      0.0000      0.0000      0.0000      0.0000      0.0000      0.0000      0.0000
      0.0000      0.0000      0.0000      0.0000      0.0000      0.0000      0.0000      0.0000      0.0000      0.0000      0.0000      0.0000      0.0000      0.0000      0.0000      0.0000      0.0000      0.0000      0.0000      0.0000      0.0000      0.0000      0.0000  19373.3125  24359.7520  24359.7520  24359.7520  24359.7520  24359.7520  24359.7520  24359.7520  24359.7520   9977.7520      0.0000      0.0000      0.0000   1203.9141  37699.8945  62057.4180  62057.4180  62057.4180  62057.4180  62057.4180  45523.8242  19057.1367  19057.1367  19057.1367  19057.1367  19057.1367  19057.1367  19057.1367  19057.1367  19057.1367  15895.5557   5640.9116   4672.8081      0.0000      0.0000      0.0000      0.0000      0.0000      0.0000      0.0000      0.0000      0.0000      0.0000      0.0000      0.0000      0.0000      0.0000      0.0000      0.0000      0.0000      0.0000      0.0000      0.0000
      0.0000      0.0000      0.0000      0.0000      0.0000      0.0000      0.0000      0.0000      0.0000      0.0000      0.0000      0.0000      0.0000      0.0000      0.0000      0.0000      0.0000      0.0000      0.0000      0.0000      0.0000      0.0000      0.0000    811.1796   9188.5049  19565.7480  24352.4414  24359.7520  24359.7520  24359.7520  24359.7520  24359.7520   4723.3569      0.0000      0.0000      0.0000      0.0000  49180.5000  62057.4180  62057.4180  62057.4180  62057.4180  62057.4180  54605.4805  19057.1367  19057.1367  19057.1367  19057.1367  19057.1367  19057.1367  19057.1367  19057.1367  19057.1367   5890.5591      0.0000      0.0000      0.0000      0.0000      0.0000      0.0000      0.0000      0.0000      0.0000      0.0000      0.0000      0.0000      0.0000      0.0000      0.0000      0.0000      0.0000      0.0000      0.0000      0.0000      0.0000      0.0000
      0.0000      0.0000      0.0000      0.0000      0.0000      0.0000      0.0000      0.0000      0.0000      0.0000      0.0000      0.0000      0.0000      0.0000      0.0000      0.0000      0.0000      0.0000      0.0000      0.0000      0.0000      0.0000      0.0000      0.0000      0.0000      0.0000   2828.1685   8798.7422  19341.6445  24359.7520  24359.7520  23811.6582    119.3628      0.0000      0.0000      0.0000  18567.5781  62057.4180  62057.4180  62057.4180  62057.4180  62057.4180  62057.4180  43034.0781  19057.1367  19057.1367  19057.1367  18811.3008  16579.7051  16162.3564  10976.9111   4356.4614   3155.8608    703.2082      0.0000      0.0000      0.0000      0.0000      0.0000      0.0000      0.0000      0.0000      0.0000      0.0000      0.0000      0.0000      0.0000      0.0000      0.0000      0.0000      0.0000      0.0000      0.0000      0.0000      0.0000      0.0000
      0.0000      0.0000      0.0000      0.0000      0.0000      0.0000      0.0000      0.0000      0.0000      0.0000      0.0000      0.0000      0.0000      0.0000      0.0000      0.0000      0.0000      0.0000      0.0000      0.0000      0.0000      0.0000      0.0000      0.0000      0.0000      0.0000      0.0000      0.0000    199.7500   9454.0215  19653.4531  24359.7520   7827.9600   3159.1492   1488.2769      0.0000  40815.1758  62057.4180  62057.4180  62057.4180  62057.4180  61980.0156  54657.0898  27317.4961  19057.1367  19057.1367  19057.1367   6656.6587      0.0000      0.0000      0.0000      0.0000      0.0000      0.0000      0.0000      0.0000      0.0000      0.0000      0.0000      0.0000      0.0000      0.0000      0.0000      0.0000      0.0000      0.0000      0.0000      0.0000      0.0000      0.0000      0.0000      0.0000      0.0000      0.0000      0.0000      0.0000
      0.0000      0.0000      0.0000      0.0000      0.0000      0.0000      0.0000      0.0000      0.0000      0.0000      0.0000      0.0000      0.0000      0.0000      0.0000      0.0000      0.0000      0.0000      0.0000      0.0000      0.0000      0.0000      0.0000      0.0000      0.0000      0.0000      0.0000      0.0000      0.0000      0.0000   3925.2815  21876.2168  14575.0303  10598.5781   3821.0840   1782.5227  31989.1895  61830.8477  75360.7578  77484.8203  59147.7070  22518.6621  19057.1367  19057.1367  19057.1367  19057.1367  17850.8184   1111.0311      0.0000      0.0000      0.0000      0.0000      0.0000      0.0000      0.0000      0.0000      0.0000      0.0000      0.0000      0.0000      0.0000      0.0000      0.0000      0.0000      0.0000      0.0000      0.0000      0.0000      0.0000      0.0000      0.0000      0.0000      0.0000      0.0000      0.0000      0.0000
      0.0000      0.0000      0.0000      0.0000      0.0000      0.0000      0.0000      0.0000      0.0000      0.0000      0.0000      0.0000      0.0000      0.0000      0.0000      0.0000      0.0000      0.0000      0.0000      0.0000      0.0000      0.0000      0.0000   1144.3802      0.0000      0.0000      0.0000      0.0000      0.0000   1268.6276   5700.1035  10898.8594  10898.8594  10898.8594   6907.6978    219.1628   2200.1506  46202.7422  83977.5781  83977.5781  80342.0156  23731.4141  19057.1367  19057.1367  19057.1367  18706.4863    634.6028      0.0000      0.0000      0.0000      0.0000      0.0000      0.0000      0.0000      0.0000      0.0000      0.0000      0.0000      0.0000      0.0000      0.0000      0.0000      0.0000      0.0000      0.0000      0.0000      0.0000      0.0000      0.0000      0.0000      0.0000      0.0000      0.0000      0.0000      0.0000      0.0000
      0.0000      0.0000      0.0000      0.0000      0.0000      0.0000      0.0000      0.0000      0.0000      0.0000      0.0000      0.0000      0.0000      0.0000      0.0000      0.0000      0.0000      0.0000      0.0000      0.0000      0.0000      0.0000      0.0000   3668.5566   3112.7141      0.0000      0.0000      0.0000      0.0000   9773.0049  10898.8594  10898.8594  10898.8594  10898.8594  10856.2012  29985.4668  25109.2852  80190.1719  83977.5781  66955.3281  16050.9258  18087.1270  19057.1367  19057.1367  19057.1367  13789.7451      0.0000      0.0000      0.0000      0.0000      0.0000      0.0000      0.0000      0.0000      0.0000      0.0000      0.0000      0.0000      0.0000      0.0000      0.0000      0.0000      0.0000      0.0000      0.0000      0.0000      0.0000      0.0000      0.0000      0.0000      0.0000      0.0000      0.0000      0.0000      0.0000      0.0000
      0.0000      0.0000      0.0000      0.0000      0.0000      0.0000      0.0000      0.0000      0.0000      0.0000      0.0000      0.0000      0.0000      0.0000      0.0000      0.0000      0.0000      0.0000      0.0000      0.0000      0.0000      0.0000      0.0000   1945.4467  10891.2295   9436.2344   7781.7866   2805.3667   4855.4424  10783.3350  10898.8594  10898.8594  24513.4199  68360.6172  70611.4453  83977.5781  83977.5781  83977.5781  83297.3672   7507.5947      0.0000   7878.2197  19057.1367  19057.1367  19057.1367   5528.4746      0.0000      0.0000      0.0000      0.0000      0.0000      0.0000      0.0000      0.0000      0.0000      0.0000      0.0000      0.0000      0.0000      0.0000      0.0000      0.0000      0.0000      0.0000      0.0000      0.0000      0.0000      0.0000      0.0000      0.0000      0.0000      0.0000      0.0000      0.0000      0.0000      0.0000
      0.0000      0.0000      0.0000      0.0000      0.0000      0.0000      0.0000      0.0000      0.0000      0.0000      0.0000      0.0000      0.0000      0.0000      0.0000      0.0000      0.0000      0.0000      0.0000      0.0000      0.0000      0.0000      0.0000   2926.3442  10898.8594  10898.8594  10898.8594  10696.1416  10787.6953  10898.8594  10898.8594   7143.1118  33576.7305  83977.5781  83977.5781  83977.5781  83977.5781  83977.5781  83977.5781  31970.2539      0.0000    343.0285   5425.5664  18858.9414  19057.1367   5534.1919      0.0000      0.0000      0.0000      0.0000      0.0000      0.0000      0.0000      0.0000      0.0000      0.0000      0.0000      0.0000      0.0000      0.0000      0.0000      0.0000      0.0000      0.0000      0.0000      0.0000      0.0000      0.0000      0.0000      0.0000      0.0000      0.0000      0.0000      0.0000      0.0000      0.0000
      0.0000      0.0000      0.0000      0.0000      0.0000      0.0000      0.0000      0.0000      0.0000      0.0000      0.0000      0.0000      0.0000      0.0000      0.0000      0.0000      0.0000      0.0000      0.0000      0.0000      0.0000      0.0000      0.0000    742.2123  10826.9297  10109.7783   8676.5820   4710.4873   5887.5635   6839.0366   3265.2986    475.1902    201.5461  58406.3867  83977.5781  83977.5781  83977.5781  83977.5781  83977.5781  13931.8779      0.0000      0.0000      0.0000  14182.3223  18879.9062   2063.8894      0.0000      0.0000      0.0000      0.0000      0.0000      0.0000      0.0000      0.0000      0.0000      0.0000      0.0000      0.0000      0.0000      0.0000      0.0000      0.0000      0.0000      0.0000      0.0000      0.0000      0.0000      0.0000      0.0000      0.0000      0.0000      0.0000      0.0000      0.0000      0.0000      0.0000
      0.0000      0.0000      0.0000      0.0000      0.0000      0.0000      0.0000      0.0000      0.0000      0.0000      0.0000      0.0000      0.0000      0.0000      0.0000      0.0000      0.0000      0.0000      0.0000      0.0000      0.0000      0.0000      0.0000      0.0000   2695.2883    253.9434      0.0000      0.0000      0.0000      0.0000      0.0000      0.0000      0.0000   8473.3340  46061.6836  76570.7500  83977.5781  83977.5781  72791.7422    201.5461      0.0000      0.0000      0.0000      0.0000   3849.5420      0.0000      0.0000      0.0000      0.0000      0.0000      0.0000      0.0000      0.0000      0.0000      0.0000      0.0000      0.0000      0.0000      0.0000      0.0000      0.0000      0.0000      0.0000      0.0000      0.0000      0.0000      0.0000      0.0000      0.0000      0.0000      0.0000      0.0000      0.0000      0.0000      0.0000      0.0000
      0.0000      0.0000      0.0000      0.0000      0.0000      0.0000      0.0000      0.0000      0.0000      0.0000      0.0000      0.0000      0.0000      0.0000      0.0000      0.0000      0.0000      0.0000      0.0000      0.0000      0.0000      0.0000      0.0000      0.0000      0.0000      0.0000      0.0000      0.0000      0.0000      0.0000      0.0000      0.0000      0.0000      0.0000      0.0000  35975.9766  83977.5781  71464.8906   6827.3765      0.0000      0.0000      0.0000      0.0000      0.0000      0.0000      0.0000      0.0000      0.0000      0.0000      0.0000      0.0000      0.0000      0.0000      0.0000      0.0000      0.0000      0.0000      0.0000      0.0000      0.0000      0.0000      0.0000      0.0000      0.0000      0.0000      0.0000      0.0000      0.0000      0.0000      0.0000      0.0000      0.0000      0.0000      0.0000      0.0000      0.0000
      0.0000      0.0000      0.0000      0.0000      0.0000      0.0000      0.0000      0.0000      0.0000      0.0000      0.0000      0.0000      0.0000      0.0000      0.0000      0.0000      0.0000      0.0000      0.0000      0.0000      0.0000      0.0000      0.0000      0.0000      0.0000      0.0000      0.0000      0.0000      0.0000      0.0000      0.0000      0.0000      0.0000      0.0000      0.0000    302.3192  19944.6738   5676.8813      0.0000      0.0000      0.0000      0.0000      0.0000      0.0000      0.0000      0.0000      0.0000      0.0000      0.0000      0.0000      0.0000      0.0000      0.0000      0.0000      0.0000      0.0000      0.0000      0.0000      0.0000      0.0000      0.0000      0.0000      0.0000      0.0000      0.0000      0.0000      0.0000      0.0000      0.0000      0.0000      0.0000      0.0000      0.0000      0.0000      0.0000      0.0000
      0.0000      0.0000      0.0000      0.0000      0.0000      0.0000      0.0000      0.0000      0.0000      0.0000      0.0000      0.0000      0.0000      0.0000      0.0000      0.0000      0.0000      0.0000      0.0000      0.0000      0.0000      0.0000      0.0000      0.0000      0.0000      0.0000      0.0000      0.0000      0.0000      0.0000      0.0000      0.0000      0.0000      0.0000      0.0000      0.0000      0.0000      0.0000      0.0000      0.0000      0.0000      0.0000      0.0000      0.0000      0.0000      0.0000      0.0000      0.0000      0.0000      0.0000      0.0000      0.0000      0.0000      0.0000      0.0000      0.0000      0.0000      0.0000      0.0000      0.0000      0.0000      0.0000      0.0000      0.0000      0.0000      0.0000      0.0000      0.0000      0.0000      0.0000      0.0000      0.0000      0.0000      0.0000      0.0000      0.0000
      0.0000      0.0000      0.0000      0.0000      0.0000      0.0000      0.0000      0.0000      0.0000      0.0000      0.0000      0.0000      0.0000      0.0000      0.0000      0.0000      0.0000      0.0000      0.0000      0.0000      0.0000      0.0000      0.0000      0.0000      0.0000      0.0000      0.0000      0.0000      0.0000      0.0000      0.0000      0.0000      0.0000      0.0000      0.0000      0.0000      0.0000      0.0000      0.0000      0.0000      0.0000      0.0000      0.0000      0.0000      0.0000      0.0000      0.0000      0.0000      0.0000      0.0000      0.0000      0.0000      0.0000      0.0000      0.0000      0.0000      0.0000      0.0000      0.0000      0.0000      0.0000      0.0000      0.0000      0.0000      0.0000      0.0000      0.0000      0.0000      0.0000      0.0000      0.0000      0.0000      0.0000      0.0000      0.0000      0.0000
      0.0000      0.0000      0.0000      0.0000      0.0000      0.0000      0.0000      0.0000      0.0000      0.0000      0.0000      0.0000      0.0000      0.0000      0.0000      0.0000      0.0000      0.0000      0.0000      0.0000      0.0000      0.0000      0.0000      0.0000      0.0000      0.0000      0.0000      0.0000      0.0000      0.0000      0.0000      0.0000      0.0000      0.0000      0.0000      0.0000      0.0000      0.0000      0.0000      0.0000      0.0000      0.0000      0.0000      0.0000      0.0000      0.0000      0.0000      0.0000      0.0000      0.0000      0.0000      0.0000      0.0000      0.0000      0.0000      0.0000      0.0000      0.0000      0.0000      0.0000      0.0000      0.0000      0.0000      0.0000      0.0000      0.0000      0.0000      0.0000      0.0000      0.0000      0.0000      0.0000      0.0000      0.0000      0.0000      0.0000
      0.0000      0.0000      0.0000      0.0000      0.0000      0.0000      0.0000      0.0000      0.0000      0.0000      0.0000      0.0000      0.0000      0.0000      0.0000      0.0000      0.0000      0.0000      0.0000      0.0000      0.0000      0.0000      0.0000      0.0000      0.0000      0.0000      0.0000      0.0000      0.0000      0.0000      0.0000      0.0000      0.0000      0.0000      0.0000      0.0000      0.0000      0.0000      0.0000      0.0000      0.0000      0.0000      0.0000      0.0000      0.0000      0.0000      0.0000      0.0000      0.0000      0.0000      0.0000      0.0000      0.0000      0.0000      0.0000      0.0000      0.0000      0.0000      0.0000      0.0000      0.0000      0.0000      0.0000      0.0000      0.0000      0.0000      0.0000      0.0000      0.0000      0.0000      0.0000      0.0000      0.0000      0.0000      0.0000      0.0000
      0.0000      0.0000      0.0000      0.0000      0.0000      0.0000      0.0000      0.0000      0.0000      0.0000      0.0000      0.0000      0.0000      0.0000      0.0000      0.0000      0.0000      0.0000      0.0000      0.0000      0.0000      0.0000      0.0000      0.0000      0.0000      0.0000      0.0000      0.0000      0.0000      0.0000      0.0000      0.0000      0.0000      0.0000      0.0000      0.0000      0.0000      0.0000      0.0000      0.0000      0.0000      0.0000      0.0000      0.0000      0.0000      0.0000      0.0000      0.0000      0.0000      0.0000      0.0000      0.0000      0.0000      0.0000      0.0000      0.0000      0.0000      0.0000      0.0000      0.0000      0.0000      0.0000      0.0000      0.0000      0.0000      0.0000      0.0000      0.0000      0.0000      0.0000      0.0000      0.0000      0.0000      0.0000      0.0000      0.0000
      0.0000      0.0000      0.0000      0.0000      0.0000      0.0000      0.0000      0.0000      0.0000      0.0000      0.0000      0.0000      0.0000      0.0000      0.0000      0.0000      0.0000      0.0000      0.0000      0.0000      0.0000      0.0000      0.0000      0.0000      0.0000      0.0000      0.0000      0.0000      0.0000      0.0000      0.0000      0.0000      0.0000      0.0000      0.0000      0.0000      0.0000      0.0000      0.0000      0.0000      0.0000      0.0000      0.0000      0.0000      0.0000      0.0000      0.0000      0.0000      0.0000      0.0000      0.0000      0.0000      0.0000      0.0000      0.0000      0.0000      0.0000      0.0000      0.0000      0.0000      0.0000      0.0000      0.0000      0.0000      0.0000      0.0000      0.0000      0.0000      0.0000      0.0000      0.0000      0.0000      0.0000      0.0000      0.0000      0.0000
      0.0000      0.0000      0.0000      0.0000      0.0000      0.0000      0.0000      0.0000      0.0000      0.0000      0.0000      0.0000      0.0000      0.0000      0.0000      0.0000      0.0000      0.0000      0.0000      0.0000      0.0000      0.0000      0.0000      0.0000      0.0000      0.0000      0.0000      0.0000      0.0000      0.0000      0.0000      0.0000      0.0000      0.0000      0.0000      0.0000      0.0000      0.0000      0.0000      0.0000      0.0000      0.0000      0.0000      0.0000      0.0000      0.0000      0.0000      0.0000      0.0000      0.0000      0.0000      0.0000      0.0000      0.0000      0.0000      0.0000      0.0000      0.0000      0.0000      0.0000      0.0000      0.0000      0.0000      0.0000      0.0000      0.0000      0.0000      0.0000      0.0000      0.0000      0.0000      0.0000      0.0000      0.0000      0.0000      0.0000
[...]
      0.0000      0.0000      0.0000      0.0000      0.0000      0.0000      0.0000      0.0000      0.0000      0.0000      0.0000      0.0000      0.0000      0.0000      0.0000      0.0000      0.0000     92.3330   8643.3955   9706.2490   1274.1957      0.0000      0.0000      0.0000      0.0000  11529.8877    103.4999      0.0000   4029.5962  36235.7344  19447.3477      0.0000      0.0000      0.0000      0.0000      0.0000      0.0000      0.0000      0.0000      0.0000      0.0000      0.0000      0.0000      0.0000      0.0000      0.0000      0.0000      0.0000      0.0000      0.0000      0.0000      0.0000      0.0000      0.0000      0.0000      0.0000      0.0000      0.0000      0.0000      0.0000      0.0000      0.0000      0.0000      0.0000      0.0000      0.0000      0.0000      0.0000      0.0000      0.0000      0.0000      0.0000      0.0000      0.0000      0.0000      0.0000
      0.0000      0.0000      0.0000      0.0000      0.0000      0.0000      0.0000      0.0000      0.0000      0.0000      0.0000      0.0000      0.0000      0.0000      0.0000      0.0000      0.0000      0.0000   9021.9561  10259.2227   8671.0977   4198.0732     12.3111      0.0000      0.0000      0.0000      0.0000      0.0000      0.0000   6128.7417  15877.2139      0.0000      0.0000      0.0000      0.0000      0.0000      0.0000      0.0000      0.0000      0.0000      0.0000      0.0000      0.0000      0.0000      0.0000      0.0000      0.0000      0.0000      0.0000      0.0000      0.0000      0.0000      0.0000      0.0000      0.0000      0.0000      0.0000      0.0000      0.0000      0.0000      0.0000      0.0000      0.0000      0.0000      0.0000      0.0000      0.0000      0.0000      0.0000      0.0000      0.0000      0.0000      0.0000      0.0000      0.0000      0.0000
      0.0000      0.0000      0.0000      0.0000      0.0000      0.0000      0.0000      0.0000      0.0000      0.0000      0.0000      0.0000      0.0000      0.0000      0.0000      0.0000      0.0000      0.0000   5408.6631  10259.2227  10259.2227  10149.4492   9797.8623   4073.5178      0.0000      0.0000      0.0000      0.0000      0.0000      0.0000   1408.2225      0.0000      0.0000      0.0000      0.0000      0.0000      0.0000      0.0000      0.0000      0.0000      0.0000      0.0000      0.0000      0.0000      0.0000      0.0000      0.0000      0.0000      0.0000      0.0000      0.0000      0.0000      0.0000      0.0000      0.0000      0.0000      0.0000      0.0000      0.0000      0.0000      0.0000      0.0000      0.0000      0.0000      0.0000      0.0000      0.0000      0.0000      0.0000      0.0000      0.0000      0.0000      0.0000      0.0000      0.0000      0.0000
      0.0000      0.0000      0.0000      0.0000      0.0000      0.0000      0.0000      0.0000      0.0000      0.0000      0.0000      0.0000      0.0000      0.0000      0.0000      0.0000      0.0000      0.0000   3300.3916  10259.2227  10259.2227  10259.2227  13395.7803  15000.8389   2988.4114      0.0000      0.0000      0.0000      0.0000      0.0000      0.0000      0.0000      0.0000      0.0000      0.0000      0.0000      0.0000      0.0000      0.0000      0.0000      0.0000      0.0000      0.0000      0.0000      0.0000      0.0000      0.0000      0.0000      0.0000      0.0000      0.0000      0.0000      0.0000      0.0000      0.0000      0.0000      0.0000      0.0000      0.0000      0.0000      0.0000      0.0000      0.0000      0.0000      0.0000      0.0000      0.0000      0.0000      0.0000      0.0000      0.0000      0.0000      0.0000      0.0000      0.0000      0.0000
      0.0000      0.0000      0.0000      0.0000      0.0000      0.0000      0.0000      0.0000      0.0000      0.0000      0.0000      0.0000      0.0000      0.0000      0.0000      0.0000      0.0000      0.0000    914.0967   9641.6201  10259.2227  10259.2227  10294.6748  14429.6689  11826.5479   1085.1062      0.0000      0.0000      0.0000      0.0000      0.0000      0.0000      0.0000      0.0000      0.0000      0.0000      0.0000      0.0000      0.0000      0.0000      0.0000      0.0000      0.0000      0.0000      0.0000      0.0000      0.0000      0.0000      0.0000      0.0000      0.0000      0.0000      0.0000      0.0000      0.0000      0.0000      0.0000      0.0000      0.0000      0.0000      0.0000      0.0000      0.0000      0.0000      0.0000      0.0000      0.0000      0.0000      0.0000      0.0000      0.0000      0.0000      0.0000      0.0000      0.0000      0.0000
      0.0000      0.0000      0.0000      0.0000      0.0000      0.0000      0.0000      0.0000      0.0000      0.0000      0.0000      0.0000      0.0000      0.0000      0.0000      0.0000      0.0000      0.0000      0.0000   6262.2290  10259.2227  10259.2227  10259.2227  14747.0938  15887.3545  10633.4053   4659.7622   3997.2585   2677.0193    527.4603      0.0000      0.0000      0.0000      0.0000      0.0000      0.0000      0.0000      0.0000      0.0000      0.0000      0.0000      0.0000      0.0000      0.0000      0.0000      0.0000      0.0000      0.0000      0.0000      0.0000      0.0000      0.0000      0.0000      0.0000      0.0000      0.0000      0.0000      0.0000      0.0000      0.0000      0.0000      0.0000      0.0000      0.0000      0.0000      0.0000      0.0000      0.0000      0.0000      0.0000      0.0000      0.0000      0.0000      0.0000      0.0000      0.0000
      0.0000      0.0000      0.0000      0.0000      0.0000      0.0000      0.0000      0.0000      0.0000      0.0000      0.0000      0.0000      0.0000      0.0000      0.0000      0.0000      0.0000      0.0000    674.0309   9032.2188  10259.2227  10259.2227  10259.2227   8571.8398  13318.3721  15439.3311  15472.6943  15282.0439  13566.2119  12293.6377   2087.5984      0.0000      0.0000      0.0000      0.0000      0.0000      0.0000      0.0000      0.0000      0.0000      0.0000      0.0000      0.0000      0.0000      0.0000      0.0000      0.0000      0.0000      0.0000      0.0000      0.0000      0.0000      0.0000      0.0000      0.0000      0.0000      0.0000      0.0000      0.0000      0.0000      0.0000      0.0000      0.0000      0.0000      0.0000      0.0000      0.0000      0.0000      0.0000      0.0000      0.0000      0.0000      0.0000      0.0000      0.0000      0.0000
      0.0000      0.0000      0.0000      0.0000      0.0000      0.0000      0.0000      0.0000      0.0000      0.0000      0.0000      0.0000      0.0000      0.0000      0.0000      0.0000      0.0000      0.0000    141.5772  10029.4180  10259.2227  10259.2227  10259.2227  10259.2227   4302.3315   1396.4987    676.8011    200.1807      0.0000     42.8958      0.0000      0.0000      0.0000      0.0000      0.0000      0.0000      0.0000      0.0000      0.0000      0.0000      0.0000      0.0000      0.0000      0.0000      0.0000      0.0000      0.0000      0.0000      0.0000      0.0000      0.0000      0.0000      0.0000      0.0000      0.0000      0.0000      0.0000      0.0000      0.0000      0.0000      0.0000      0.0000      0.0000      0.0000      0.0000      0.0000      0.0000      0.0000      0.0000      0.0000      0.0000      0.0000      0.0000      0.0000      0.0000      0.0000
      0.0000      0.0000      0.0000      0.0000      0.0000      0.0000      0.0000      0.0000      0.0000      0.0000      0.0000      0.0000      0.0000      0.0000      0.0000      0.0000      0.0000      0.0000     92.3330   9992.4805  10259.2227  10259.2227  10259.2227  10259.2227  10220.2383   7988.8560   3350.6626    156.9661      0.0000      0.0000      0.0000      0.0000      0.0000      0.0000      0.0000      0.0000      0.0000      0.0000      0.0000      0.0000      0.0000      0.0000      0.0000      0.0000      0.0000      0.0000      0.0000      0.0000      0.0000      0.0000      0.0000      0.0000      0.0000      0.0000      0.0000      0.0000      0.0000      0.0000      0.0000      0.0000      0.0000      0.0000      0.0000      0.0000      0.0000      0.0000      0.0000      0.0000      0.0000      0.0000      0.0000      0.0000      0.0000      0.0000      0.0000      0.0000
      0.0000      0.0000      0.0000      0.0000      0.0000      0.0000      0.0000      0.0000      0.0000      0.0000      0.0000      0.0000      0.0000      0.0000      0.0000      0.0000      0.0000      0.0000   1289.5844  10251.0156  10259.2227  10259.2227  10259.2227  10259.2227  10259.2227  10259.2227  10259.2227   7423.5708    184.6660      0.0000      0.0000      0.0000      0.0000      0.0000      0.0000      0.0000      0.0000      0.0000      0.0000      0.0000      0.0000      0.0000      0.0000      0.0000      0.0000      0.0000      0.0000      0.0000      0.0000      0.0000      0.0000      0.0000      0.0000      0.0000      0.0000      0.0000      0.0000      0.0000      0.0000      0.0000      0.0000      0.0000      0.0000      0.0000      0.0000      0.0000      0.0000      0.0000      0.0000      0.0000      0.0000      0.0000      0.0000      0.0000      0.0000      0.0000
      0.0000      0.0000      0.0000      0.0000      0.0000      0.0000      0.0000      0.0000      0.0000      0.0000      0.0000      0.0000      0.0000      0.0000      0.0000      0.0000      0.0000      0.0000   2223.1736  10259.2227  10259.2227  10259.2227  10259.2227  10259.2227  10259.2227  10259.2227  10259.2227  10259.2227   7945.7681      0.0000      0.0000      0.0000      0.0000      0.0000      0.0000      0.0000      0.0000      0.0000      0.0000      0.0000      0.0000      0.0000      0.0000      0.0000      0.0000      0.0000      0.0000      0.0000      0.0000      0.0000      0.0000      0.0000      0.0000      0.0000      0.0000      0.0000      0.0000      0.0000      0.0000      0.0000      0.0000      0.0000      0.0000      0.0000      0.0000      0.0000      0.0000      0.0000      0.0000      0.0000      0.0000      0.0000      0.0000      0.0000      0.0000      0.0000
      0.0000      0.0000      0.0000      0.0000      0.0000      0.0000      0.0000      0.0000      0.0000      0.0000      0.0000      0.0000      0.0000      0.0000      0.0000      0.0000      0.0000      0.0000   1667.1238   8405.3838  10259.2227  10259.2227  10259.2227  10259.2227  10259.2227  10259.2227  10259.2227  10259.2227  10033.5215   1085.4261      0.0000      0.0000      0.0000      0.0000      0.0000      0.0000      0.0000      0.0000      0.0000      0.0000      0.0000      0.0000      0.0000      0.0000      0.0000      0.0000      0.0000      0.0000      0.0000      0.0000      0.0000      0.0000      0.0000      0.0000      0.0000      0.0000      0.0000      0.0000      0.0000      0.0000      0.0000      0.0000      0.0000      0.0000      0.0000      0.0000      0.0000      0.0000      0.0000      0.0000      0.0000      0.0000      0.0000      0.0000      0.0000      0.0000
      0.0000      0.0000      0.0000      0.0000      0.0000      0.0000      0.0000      0.0000      0.0000      0.0000      0.0000      0.0000      0.0000      0.0000      0.0000      0.0000      0.0000      0.0000      0.0000    417.5504   2721.7722   9188.1553  10259.2227  10259.2227  10259.2227  10259.2227  10259.2227  10259.2227  10259.2227   6304.2935      0.0000      0.0000      0.0000      0.0000      0.0000      0.0000      0.0000      0.0000      0.0000      0.0000      0.0000      0.0000      0.0000      0.0000      0.0000      0.0000      0.0000      0.0000      0.0000      0.0000      0.0000      0.0000      0.0000      0.0000      0.0000      0.0000      0.0000      0.0000      0.0000      0.0000      0.0000      0.0000      0.0000      0.0000      0.0000      0.0000      0.0000      0.0000      0.0000      0.0000      0.0000      0.0000      0.0000      0.0000      0.0000      0.0000
      0.0000      0.0000      0.0000      0.0000      0.0000      0.0000      0.0000      0.0000      0.0000      0.0000      0.0000      0.0000      0.0000      0.0000      0.0000      0.0000      0.0000      0.0000      0.0000      0.0000      0.0000   3789.7559  10259.2227  10259.2227  10259.2227  10259.2227  10259.2227  10259.2227   7794.9580   1298.8173      0.0000      0.0000      0.0000      0.0000      0.0000      0.0000      0.0000      0.0000      0.0000      0.0000      0.0000      0.0000      0.0000      0.0000      0.0000      0.0000      0.0000      0.0000      0.0000      0.0000      0.0000      0.0000      0.0000      0.0000      0.0000      0.0000      0.0000      0.0000      0.0000      0.0000      0.0000      0.0000      0.0000      0.0000      0.0000      0.0000      0.0000      0.0000      0.0000      0.0000      0.0000      0.0000      0.0000      0.0000      0.0000      0.0000
      0.0000      0.0000      0.0000      0.0000      0.0000      0.0000      0.0000      0.0000      0.0000      0.0000      0.0000      0.0000      0.0000      0.0000      0.0000      0.0000      0.0000      0.0000      0.0000      0.0000      0.0000     17.4407   1928.7336   4686.4131   7964.2349   5791.3320   2214.9663   2929.0076    145.6810      0.0000      0.0000      0.0000      0.0000      0.0000      0.0000      0.0000      0.0000      0.0000      0.0000      0.0000      0.0000      0.0000      0.0000      0.0000      0.0000      0.0000      0.0000      0.0000      0.0000      0.0000      0.0000      0.0000      0.0000      0.0000      0.0000      0.0000      0.0000      0.0000      0.0000      0.0000      0.0000      0.0000      0.0000      0.0000      0.0000      0.0000      0.0000      0.0000      0.0000      0.0000      0.0000      0.0000      0.0000      0.0000      0.0000      0.0000
      0.0000      0.0000      0.0000      0.0000      0.0000      0.0000      0.0000      0.0000      0.0000      0.0000      0.0000      0.0000      0.0000      0.0000      0.0000      0.0000      0.0000      0.0000      0.0000      0.0000      0.0000      0.0000      0.0000      0.0000      0.0000      0.0000      0.0000      0.0000      0.0000      0.0000      0.0000      0.0000      0.0000      0.0000      0.0000      0.0000      0.0000      0.0000      0.0000      0.0000      0.0000      0.0000      0.0000      0.0000      0.0000      0.0000      0.0000      0.0000      0.0000      0.0000      0.0000      0.0000      0.0000      0.0000      0.0000      0.0000      0.0000      0.0000      0.0000      0.0000      0.0000      0.0000      0.0000      0.0000      0.0000      0.0000      0.0000      0.0000      0.0000      0.0000      0.0000      0.0000      0.0000      0.0000      0.0000      0.0000
      0.0000      0.0000      0.0000      0.0000      0.0000      0.0000      0.0000      0.0000      0.0000      0.0000      0.0000      0.0000      0.0000      0.0000      0.0000      0.0000      0.0000      0.0000      0.0000      0.0000      0.0000      0.0000      0.0000      0.0000      0.0000      0.0000      0.0000      0.0000      0.0000      0.0000      0.0000      0.0000      0.0000      0.0000      0.0000      0.0000      0.0000      0.0000      0.0000      0.0000      0.0000      0.0000      0.0000      0.0000      0.0000      0.0000      0.0000      0.0000      0.0000      0.0000      0.0000      0.0000      0.0000      0.0000      0.0000      0.0000      0.0000      0.0000      0.0000      0.0000      0.0000      0.0000      0.0000      0.0000      0.0000      0.0000      0.0000      0.0000      0.0000      0.0000      0.0000      0.0000      0.0000      0.0000      0.0000      0.0000
      0.0000      0.0000      0.0000      0.0000      0.0000      0.0000      0.0000      0.0000      0.0000      0.0000      0.0000      0.0000      0.0000      0.0000      0.0000      0.0000      0.0000      0.0000      0.0000      0.0000      0.0000      0.0000      0.0000      0.0000      0.0000      0.0000      0.0000      0.0000      0.0000      0.0000      0.0000      0.0000      0.0000      0.0000      0.0000      0.0000      0.0000      0.0000      0.0000      0.0000      0.0000      0.0000      0.0000      0.0000      0.0000      0.0000      0.0000      0.0000      0.0000      0.0000      0.0000      0.0000      0.0000      0.0000      0.0000      0.0000      0.0000      0.0000      0.0000      0.0000      0.0000      0.0000      0.0000      0.0000      0.0000      0.0000      0.0000      0.0000      0.0000      0.0000      0.0000      0.0000      0.0000      0.0000      0.0000      0.0000
      0.0000      0.0000      0.0000      0.0000      0.0000      0.0000      0.0000      0.0000      0.0000      0.0000      0.0000      0.0000      0.0000      0.0000      0.0000      0.0000      0.0000      0.0000      0.0000      0.0000      0.0000      0.0000      0.0000      0.0000      0.0000      0.0000      0.0000      0.0000      0.0000      0.0000      0.0000      0.0000      0.0000      0.0000      0.0000      0.0000      0.0000      0.0000      0.0000      0.0000      0.0000      0.0000      0.0000      0.0000      0.0000      0.0000      0.0000      0.0000      0.0000      0.0000      0.0000      0.0000      0.0000      0.0000      0.0000      0.0000      0.0000      0.0000      0.0000      0.0000      0.0000      0.0000      0.0000      0.0000      0.0000      0.0000      0.0000      0.0000      0.0000      0.0000      0.0000      0.0000      0.0000      0.0000      0.0000      0.0000
      0.0000      0.0000      0.0000      0.0000      0.0000      0.0000      0.0000      0.0000      0.0000      0.0000      0.0000      0.0000      0.0000      0.0000      0.0000      0.0000      0.0000      0.0000      0.0000      0.0000      0.0000      0.0000      0.0000      0.0000      0.0000      0.0000      0.0000      0.0000      0.0000      0.0000      0.0000      0.0000      0.0000      0.0000      0.0000      0.0000      0.0000      0.0000      0.0000      0.0000      0.0000      0.0000      0.0000      0.0000      0.0000      0.0000      0.0000      0.0000      0.0000      0.0000      0.0000      0.0000      0.0000      0.0000      0.0000      0.0000      0.0000      0.0000      0.0000      0.0000      0.0000      0.0000      0.0000      0.0000      0.0000      0.0000      0.0000      0.0000      0.0000      0.0000      0.0000      0.0000      0.0000      0.0000      0.0000      0.0000
      0.0000      0.0000      0.0000      0.0000      0.0000      0.0000      0.0000      0.0000      0.0000      0.0000      0.0000      0.0000      0.0000      0.0000      0.0000      0.0000      0.0000      0.0000      0.0000      0.0000      0.0000      0.0000      0.0000      0.0000      0.0000      0.0000      0.0000      0.0000      0.0000      0.0000      0.0000      0.0000      0.0000      0.0000      0.0000      0.0000      0.0000      0.0000      0.0000      0.0000      0.0000      0.0000      0.0000      0.0000      0.0000      0.0000      0.0000      0.0000      0.0000      0.0000      0.0000      0.0000      0.0000      0.0000      0.0000      0.0000      0.0000      0.0000      0.0000      0.0000      0.0000      0.0000      0.0000      0.0000      0.0000      0.0000      0.0000      0.0000      0.0000      0.0000      0.0000      0.0000      0.0000      0.0000      0.0000      0.0000
 
