 MODFLOW River Stage (L) (for each River Cell)
 --Calculated from APEX Channel Depth--
 
 Day:           1
 Channel depth for each MODFLOW River Cell
  0.0000000E+00
  0.0000000E+00
  0.0000000E+00
  0.0000000E+00
  0.0000000E+00
  0.0000000E+00
  0.0000000E+00
  0.0000000E+00
  0.0000000E+00
  0.0000000E+00
  0.0000000E+00
  0.0000000E+00
  0.0000000E+00
  0.0000000E+00
  0.0000000E+00
  0.0000000E+00
  0.0000000E+00
  0.0000000E+00
  0.0000000E+00
  0.0000000E+00
  0.0000000E+00
  0.0000000E+00
  0.0000000E+00
  0.0000000E+00
  0.0000000E+00
  0.0000000E+00
  0.0000000E+00
  0.0000000E+00
  0.0000000E+00
  0.0000000E+00
  0.0000000E+00
  0.0000000E+00
  0.0000000E+00
  0.0000000E+00
  0.0000000E+00
  0.0000000E+00
  0.0000000E+00
  0.0000000E+00
  0.0000000E+00
  0.0000000E+00
  0.0000000E+00
  0.0000000E+00
  0.0000000E+00
  0.0000000E+00
  0.0000000E+00
  0.0000000E+00
  0.0000000E+00
  0.0000000E+00
  0.0000000E+00
  0.0000000E+00
  0.0000000E+00
  0.0000000E+00
  0.0000000E+00
  0.0000000E+00
  0.0000000E+00
  0.0000000E+00
  0.0000000E+00
  0.0000000E+00
  0.0000000E+00
  0.0000000E+00
  0.0000000E+00
  0.0000000E+00
  0.0000000E+00
  0.0000000E+00
  0.0000000E+00
  0.0000000E+00
  0.0000000E+00
  0.0000000E+00
  0.0000000E+00
  0.0000000E+00
  0.0000000E+00
  0.0000000E+00
  0.0000000E+00
  0.0000000E+00
  0.0000000E+00
  0.0000000E+00
  0.0000000E+00
  0.0000000E+00
  0.0000000E+00
  0.0000000E+00
  0.0000000E+00
  0.0000000E+00
  0.0000000E+00
  0.0000000E+00
  0.0000000E+00
  0.0000000E+00
  0.0000000E+00
  0.0000000E+00
  0.0000000E+00
  0.0000000E+00
  0.0000000E+00
  0.0000000E+00
  0.0000000E+00
  0.0000000E+00
  0.0000000E+00
  0.0000000E+00
  0.0000000E+00
  0.0000000E+00
  0.0000000E+00
  0.0000000E+00
  0.0000000E+00
  0.0000000E+00
  0.0000000E+00
  0.0000000E+00
  0.0000000E+00
  0.0000000E+00
  0.0000000E+00
  0.0000000E+00
  0.0000000E+00
  0.0000000E+00
  0.0000000E+00
  0.0000000E+00
  0.0000000E+00
  0.0000000E+00
  0.0000000E+00
  0.0000000E+00
  0.0000000E+00
  0.0000000E+00
  0.0000000E+00
  0.0000000E+00
  0.0000000E+00
  0.0000000E+00
  0.0000000E+00
  0.0000000E+00
  0.0000000E+00
  0.0000000E+00
  0.0000000E+00
  0.0000000E+00
  0.0000000E+00
  0.0000000E+00
  0.0000000E+00
  0.0000000E+00
  0.0000000E+00
  0.0000000E+00
  0.0000000E+00
  0.0000000E+00
  0.0000000E+00
  0.0000000E+00
  0.0000000E+00
  0.0000000E+00
  0.0000000E+00
  0.0000000E+00
  0.0000000E+00
  0.0000000E+00
  0.0000000E+00
  0.0000000E+00
  0.0000000E+00
  0.0000000E+00
  0.0000000E+00
  0.0000000E+00
  0.0000000E+00
  0.0000000E+00
  0.0000000E+00
  0.0000000E+00
  0.0000000E+00
  0.0000000E+00
  0.0000000E+00
  0.0000000E+00
  0.0000000E+00
  0.0000000E+00
  0.0000000E+00
  0.0000000E+00
  0.0000000E+00
  0.0000000E+00
  0.0000000E+00
  0.0000000E+00
  0.0000000E+00
  0.0000000E+00
  0.0000000E+00
  0.0000000E+00
  0.0000000E+00
  0.0000000E+00
  0.0000000E+00
  0.0000000E+00
  0.0000000E+00
  0.0000000E+00
  0.0000000E+00
  0.0000000E+00
  0.0000000E+00
  0.0000000E+00
  0.0000000E+00
  0.0000000E+00
  0.0000000E+00
  0.0000000E+00
  0.0000000E+00
  0.0000000E+00
  0.0000000E+00
  0.0000000E+00
  0.0000000E+00
  0.0000000E+00
  0.0000000E+00
  0.0000000E+00
  0.0000000E+00
  0.0000000E+00
  0.0000000E+00
  0.0000000E+00
  0.0000000E+00
  0.0000000E+00
  0.0000000E+00
  0.0000000E+00
  0.0000000E+00
  0.0000000E+00
  0.0000000E+00
  0.0000000E+00
  0.0000000E+00
  0.0000000E+00
  0.0000000E+00
  0.0000000E+00
  0.0000000E+00
  0.0000000E+00
  0.0000000E+00
  0.0000000E+00
  0.0000000E+00
  0.0000000E+00
  0.0000000E+00
  0.0000000E+00
  0.0000000E+00
  0.0000000E+00
  0.0000000E+00
  0.0000000E+00
  0.0000000E+00
  0.0000000E+00
  0.0000000E+00
  0.0000000E+00
  0.0000000E+00
  0.0000000E+00
  0.0000000E+00
  0.0000000E+00
  0.0000000E+00
  0.0000000E+00
  0.0000000E+00
  0.0000000E+00
  0.0000000E+00
  0.0000000E+00
  0.0000000E+00
  0.0000000E+00
  0.0000000E+00
  0.0000000E+00
  0.0000000E+00
  0.0000000E+00
  0.0000000E+00
  0.0000000E+00
  0.0000000E+00
  0.0000000E+00
  0.0000000E+00
  0.0000000E+00
  0.0000000E+00
  0.0000000E+00
  0.0000000E+00
  0.0000000E+00
  0.0000000E+00
  0.0000000E+00
  0.0000000E+00
  0.0000000E+00
  0.0000000E+00
  0.0000000E+00
  0.0000000E+00
  0.0000000E+00
  0.0000000E+00
  0.0000000E+00
  0.0000000E+00
  0.0000000E+00
  0.0000000E+00
  0.0000000E+00
  0.0000000E+00
  0.0000000E+00
  0.0000000E+00
  0.0000000E+00
  0.0000000E+00
  0.0000000E+00
  0.0000000E+00
  0.0000000E+00
  0.0000000E+00
  0.0000000E+00
  0.0000000E+00
  0.0000000E+00
  0.0000000E+00
  0.0000000E+00
  0.0000000E+00
  0.0000000E+00
  0.0000000E+00
  0.0000000E+00
  0.0000000E+00
  0.0000000E+00
  0.0000000E+00
  0.0000000E+00
  0.0000000E+00
  0.0000000E+00
  0.0000000E+00
  0.0000000E+00
  0.0000000E+00
  0.0000000E+00
  0.0000000E+00
  0.0000000E+00
  0.0000000E+00
  0.0000000E+00
  0.0000000E+00
  0.0000000E+00
  0.0000000E+00
  0.0000000E+00
  0.0000000E+00
  0.0000000E+00
  0.0000000E+00
  0.0000000E+00
  0.0000000E+00
  0.0000000E+00
  0.0000000E+00
  0.0000000E+00
  0.0000000E+00
  0.0000000E+00
  0.0000000E+00
  0.0000000E+00
  0.0000000E+00
  0.0000000E+00
  0.0000000E+00
  0.0000000E+00
  0.0000000E+00
  0.0000000E+00
  0.0000000E+00
  0.0000000E+00
  0.0000000E+00
  0.0000000E+00
  0.0000000E+00
  0.0000000E+00
  0.0000000E+00
  0.0000000E+00
  0.0000000E+00
  0.0000000E+00
  0.0000000E+00
  0.0000000E+00
  0.0000000E+00
  0.0000000E+00
  0.0000000E+00
  0.0000000E+00
  0.0000000E+00
  0.0000000E+00
  0.0000000E+00
  0.0000000E+00
  0.0000000E+00
  0.0000000E+00
  0.0000000E+00
  0.0000000E+00
  0.0000000E+00
  0.0000000E+00
  0.0000000E+00
  0.0000000E+00
  0.0000000E+00
  0.0000000E+00
  0.0000000E+00
  0.0000000E+00
  0.0000000E+00
  0.0000000E+00
  0.0000000E+00
  0.0000000E+00
  0.0000000E+00
  0.0000000E+00
  0.0000000E+00
  0.0000000E+00
  0.0000000E+00
  0.0000000E+00
  0.0000000E+00
  0.0000000E+00
  0.0000000E+00
  0.0000000E+00
  0.0000000E+00
  0.0000000E+00
  0.0000000E+00
  0.0000000E+00
  0.0000000E+00
  0.0000000E+00
  0.0000000E+00
  0.0000000E+00
  0.0000000E+00
  0.0000000E+00
  0.0000000E+00
  0.0000000E+00
  0.0000000E+00
  0.0000000E+00
  0.0000000E+00
  0.0000000E+00
  0.0000000E+00
  0.0000000E+00
  0.0000000E+00
  0.0000000E+00
  0.0000000E+00
  0.0000000E+00
  0.0000000E+00
  0.0000000E+00
  0.0000000E+00
  0.0000000E+00
  0.0000000E+00
  0.0000000E+00
  0.0000000E+00
  0.0000000E+00
  0.0000000E+00
  0.0000000E+00
  0.0000000E+00
  0.0000000E+00
  0.0000000E+00
  0.0000000E+00
  0.0000000E+00
  0.0000000E+00
  0.0000000E+00
  0.0000000E+00
  0.0000000E+00
  0.0000000E+00
  0.0000000E+00
  0.0000000E+00
  0.0000000E+00
  0.0000000E+00
  0.0000000E+00
  0.0000000E+00
  0.0000000E+00
  0.0000000E+00
  0.0000000E+00
  0.0000000E+00
  0.0000000E+00
  0.0000000E+00
  0.0000000E+00
  0.0000000E+00
  0.0000000E+00
  0.0000000E+00
  0.0000000E+00
  0.0000000E+00
  0.0000000E+00
  0.0000000E+00
  0.0000000E+00
  0.0000000E+00
  0.0000000E+00
  0.0000000E+00
  0.0000000E+00
  0.0000000E+00
  0.0000000E+00
  0.0000000E+00
  0.0000000E+00
  0.0000000E+00
  0.0000000E+00
  0.0000000E+00
  0.0000000E+00
  0.0000000E+00
  0.0000000E+00
  0.0000000E+00
  0.0000000E+00
  0.0000000E+00
  0.0000000E+00
  0.0000000E+00
  0.0000000E+00
  0.0000000E+00
  0.0000000E+00
  0.0000000E+00
  0.0000000E+00
  0.0000000E+00
  0.0000000E+00
  0.0000000E+00
  0.0000000E+00
  0.0000000E+00
  0.0000000E+00
  0.0000000E+00
  0.0000000E+00
  0.0000000E+00
  0.0000000E+00
  0.0000000E+00
  0.0000000E+00
  0.0000000E+00
  0.0000000E+00
  0.0000000E+00
  0.0000000E+00
  0.0000000E+00
  0.0000000E+00
  0.0000000E+00
  0.0000000E+00
  0.0000000E+00
  0.0000000E+00
  0.0000000E+00
  0.0000000E+00
  0.0000000E+00
  0.0000000E+00
  0.0000000E+00
  0.0000000E+00
  0.0000000E+00
  0.0000000E+00
  0.0000000E+00
  0.0000000E+00
  0.0000000E+00
  0.0000000E+00
  0.0000000E+00
  0.0000000E+00
  0.0000000E+00
  0.0000000E+00
  0.0000000E+00
  0.0000000E+00
  0.0000000E+00
  0.0000000E+00
  0.0000000E+00
  0.0000000E+00
  0.0000000E+00
  0.0000000E+00
  0.0000000E+00
  0.0000000E+00
  0.0000000E+00
  0.0000000E+00
  0.0000000E+00
  0.0000000E+00
  0.0000000E+00
 
 Day:         100
 Channel depth for each MODFLOW River Cell
  0.0000000E+00
  0.0000000E+00
  0.0000000E+00
  0.0000000E+00
  0.0000000E+00
  0.0000000E+00
  0.0000000E+00
  0.0000000E+00
  0.0000000E+00
  0.0000000E+00
  0.0000000E+00
  0.0000000E+00
  0.0000000E+00
  0.0000000E+00
  0.0000000E+00
  0.0000000E+00
  0.0000000E+00
  0.0000000E+00
  0.0000000E+00
  0.0000000E+00
  0.0000000E+00
  0.0000000E+00
  0.0000000E+00
  0.0000000E+00
  0.0000000E+00
  0.0000000E+00
  0.0000000E+00
  0.0000000E+00
  0.0000000E+00
  0.0000000E+00
  0.0000000E+00
  0.0000000E+00
  0.0000000E+00
  0.0000000E+00
  0.0000000E+00
  0.0000000E+00
  0.0000000E+00
  0.0000000E+00
  0.0000000E+00
  0.0000000E+00
  0.0000000E+00
  0.0000000E+00
  0.0000000E+00
  0.0000000E+00
  0.0000000E+00
  0.0000000E+00
  0.0000000E+00
  0.0000000E+00
  0.0000000E+00
  0.0000000E+00
  0.0000000E+00
  0.0000000E+00
  0.0000000E+00
  0.0000000E+00
  0.0000000E+00
  0.0000000E+00
  0.0000000E+00
  0.0000000E+00
  0.0000000E+00
  0.0000000E+00
  0.0000000E+00
  0.0000000E+00
  0.0000000E+00
  0.0000000E+00
  0.0000000E+00
  0.0000000E+00
  0.0000000E+00
  0.0000000E+00
  0.0000000E+00
  0.0000000E+00
  0.0000000E+00
  0.0000000E+00
  0.0000000E+00
  0.0000000E+00
  0.0000000E+00
  0.0000000E+00
  0.0000000E+00
  0.0000000E+00
  0.0000000E+00
  0.0000000E+00
  0.0000000E+00
  0.0000000E+00
  0.0000000E+00
  0.0000000E+00
  0.0000000E+00
  0.0000000E+00
  0.0000000E+00
  0.0000000E+00
  0.0000000E+00
  0.0000000E+00
  0.0000000E+00
  0.0000000E+00
  0.0000000E+00
  0.0000000E+00
  0.0000000E+00
  0.0000000E+00
  0.0000000E+00
  0.0000000E+00
  0.0000000E+00
  0.0000000E+00
  0.0000000E+00
  4.9144211E-03
  0.0000000E+00
  0.0000000E+00
  0.0000000E+00
  0.0000000E+00
  0.0000000E+00
  0.0000000E+00
  0.0000000E+00
  0.0000000E+00
  7.7741952E-03
  1.5417365E-02
  0.0000000E+00
  0.0000000E+00
  0.0000000E+00
  0.0000000E+00
  7.7741956E-03
  3.2870356E-02
  8.6087137E-02
  0.0000000E+00
  7.7741956E-03
  3.2870356E-02
  0.3480915    
  0.3480915    
  0.3480915    
  0.3480915    
  0.1366312    
  0.0000000E+00
  7.7741961E-03
  3.2870356E-02
  2.6558792E-02
  0.3480915    
  0.3480915    
  0.3480915    
  0.3480915    
  0.0000000E+00
  7.7741961E-03
  0.1665885    
  0.3480915    
  7.7741956E-03
  7.7741956E-03
  3.7255917E-02
  7.7741956E-03
  7.7741956E-03
  3.7255917E-02
  7.7741956E-03
  3.7255917E-02
  7.7741961E-03
  3.7255917E-02
  7.7741956E-03
  3.7255917E-02
  7.7741961E-03
  0.0000000E+00
  3.7255917E-02
  7.7741956E-03
  0.0000000E+00
  3.7255917E-02
  0.0000000E+00
  0.0000000E+00
  0.0000000E+00
  2.6895376E-03
  0.1394066    
  0.0000000E+00
  0.0000000E+00
  2.2889186E-02
  0.0000000E+00
  0.0000000E+00
  0.0000000E+00
  0.1627778    
  0.1627778    
  0.0000000E+00
  0.0000000E+00
  0.0000000E+00
  2.7049489E-02
  0.0000000E+00
  0.0000000E+00
  0.0000000E+00
  0.0000000E+00
  0.0000000E+00
  0.0000000E+00
  0.1627778    
  0.1627778    
  0.0000000E+00
  0.0000000E+00
  2.7049489E-02
  0.0000000E+00
  0.0000000E+00
  0.1627778    
  0.2386582    
  0.0000000E+00
  1.9210657E-02
  2.7049489E-02
  0.0000000E+00
  0.0000000E+00
  0.3816612    
  3.4273234E-03
  2.7049489E-02
  0.0000000E+00
  0.0000000E+00
  0.3816612    
  1.2039597E-02
  2.7049489E-02
  0.0000000E+00
  0.3816612    
  7.3694685E-03
  2.7049487E-02
  0.0000000E+00
  0.0000000E+00
  0.3816612    
  0.3816612    
  0.1365378    
  0.0000000E+00
  0.3816612    
  0.1421372    
  0.0000000E+00
  0.0000000E+00
  0.3816612    
  0.1421372    
  0.0000000E+00
  0.3826324    
  0.1421372    
  0.0000000E+00
  0.0000000E+00
  0.0000000E+00
  0.3835051    
  0.3835051    
  0.1051913    
  2.9532850E-02
  0.0000000E+00
  0.0000000E+00
  0.0000000E+00
  0.0000000E+00
  0.3835051    
  0.2127901    
  6.1861757E-02
  0.0000000E+00
  0.0000000E+00
  0.0000000E+00
  5.0996333E-02
  6.8857558E-02
  0.0000000E+00
  0.0000000E+00
  5.0996333E-02
  0.0000000E+00
  0.0000000E+00
  0.0000000E+00
  5.0996333E-02
  5.0996333E-02
  0.0000000E+00
  0.0000000E+00
  5.0996333E-02
  0.0000000E+00
  0.0000000E+00
  5.0996333E-02
  0.0000000E+00
  0.0000000E+00
  0.0000000E+00
  0.0000000E+00
  0.0000000E+00
  0.0000000E+00
  5.0996333E-02
  0.0000000E+00
  0.0000000E+00
  0.0000000E+00
  0.0000000E+00
  5.0996333E-02
  0.0000000E+00
  0.0000000E+00
  0.0000000E+00
  0.0000000E+00
  0.0000000E+00
  5.0996333E-02
  0.0000000E+00
  0.0000000E+00
  0.0000000E+00
  0.0000000E+00
  0.0000000E+00
  0.0000000E+00
  5.0996333E-02
  5.0996333E-02
  0.0000000E+00
  0.0000000E+00
  0.0000000E+00
  0.0000000E+00
  0.0000000E+00
  0.0000000E+00
  0.0000000E+00
  0.0000000E+00
  5.0996333E-02
  5.0996333E-02
  0.0000000E+00
  0.0000000E+00
  0.0000000E+00
  0.0000000E+00
  0.0000000E+00
  2.1699842E-02
  5.0996333E-02
  0.0000000E+00
  0.0000000E+00
  0.0000000E+00
  0.0000000E+00
  2.4096675E-03
  2.8991669E-02
  0.0000000E+00
  0.0000000E+00
  0.0000000E+00
  2.5116986E-02
  0.2083275    
  0.2398381    
  0.0000000E+00
  2.5116986E-02
  2.5116986E-02
  2.5116986E-02
  2.5116986E-02
  0.2438349    
  0.0000000E+00
  0.3345339    
  0.0000000E+00
  0.3345339    
  0.0000000E+00
  0.3345339    
  0.0000000E+00
  0.0000000E+00
  0.3345339    
  0.1328935    
  0.0000000E+00
  0.0000000E+00
  0.3345339    
  0.1544177    
  0.0000000E+00
  0.0000000E+00
  0.3331397    
  0.3038209    
  0.1544177    
  0.0000000E+00
  0.3038209    
  0.1544177    
  0.0000000E+00
  0.3038209    
  0.3038209    
  0.1544177    
  0.1007764    
  0.3038209    
  0.3038209    
  0.1544177    
  0.1780273    
  0.1544177    
  0.1780273    
  0.1544177    
  0.1544177    
  0.1780273    
  0.1544177    
  0.1780273    
  0.1780273    
  0.1544177    
  0.1544177    
  0.0000000E+00
  0.1780273    
  0.1780273    
  0.1544177    
  0.0000000E+00
  0.0000000E+00
  0.0000000E+00
  0.1780273    
  0.0000000E+00
  0.1544177    
  0.1544177    
  0.0000000E+00
  0.0000000E+00
  0.1160857    
  5.6305476E-02
  5.6305479E-02
  5.6305483E-02
  3.8618427E-02
  0.1544177    
  0.1544177    
  4.3382816E-02
  0.0000000E+00
  0.0000000E+00
  0.2015714    
  5.6305479E-02
  5.6305479E-02
  6.3983962E-02
  6.3137524E-02
  0.0000000E+00
  0.0000000E+00
  0.2015714    
  5.6305479E-02
  0.2015714    
  0.2015714    
  5.6305483E-02
  5.6305479E-02
  0.2015714    
  5.6305483E-02
  0.2015714    
  5.6305479E-02
  0.2015714    
  5.6305479E-02
  5.6305479E-02
  0.1545761    
  5.6305479E-02
  0.2015714    
  9.2785187E-02
  0.1727036    
  0.2298015    
  0.0000000E+00
  0.2330069    
  0.0000000E+00
  0.2330069    
  0.0000000E+00
  0.2330069    
  0.0000000E+00
  0.0000000E+00
  0.1022188    
  0.0000000E+00
  0.0000000E+00
  0.1416479    
  0.0000000E+00
  0.0000000E+00
  0.2048049    
  0.0000000E+00
  0.0000000E+00
  0.0000000E+00
  0.2048049    
  1.6880542E-02
  3.3738054E-02
  0.2048049    
  0.2048049    
  3.3738054E-02
  3.3738054E-02
  0.2048049    
  3.3738054E-02
  0.2048049    
  0.0000000E+00
  0.0000000E+00
  0.0000000E+00
  0.1781530    
  0.1137909    
  0.1820846    
  0.0000000E+00
  0.0000000E+00
  0.1781530    
  0.1342980    
  4.0406380E-02
  0.0000000E+00
  0.0000000E+00
  0.1781530    
  0.1781530    
  0.0000000E+00
  0.1781530    
  0.1781530    
  0.0000000E+00
  0.1502861    
  0.1781530    
  0.1781530    
  0.1636423    
  0.1636423    
  0.1636423    
  0.1506185    
  9.0971991E-02
  0.0000000E+00
  0.1506185    
  0.1506185    
  0.0000000E+00
  0.0000000E+00
  0.0000000E+00
  0.0000000E+00
  0.0000000E+00
  0.0000000E+00
  0.1506185    
  0.1506185    
  0.0000000E+00
  0.1506185    
  0.0000000E+00
  0.1506185    
  0.1506185    
  0.1403972    
  9.1753028E-02
  0.1506185    
  0.1441827    
  0.1438069    
  0.1403972    
  0.1441827    
  0.1441827    
  0.1441827    
  0.1278638    
  0.1278638    
  0.1233313    
  0.1278638    
  0.1278638    
  0.1278638    
  0.1278638    
  0.1278638    
  0.1278638    
  0.1278638    
  0.1278638    
  0.1278638    
  0.1278638    
  0.1278638    
  0.1278638    
  0.1278638    
  0.1278638    
  0.1278638    
  0.1278638    
